15
Molecule ID: Mol_211
F -3.6678 -0.8454 0.7704
S -2.8511 0.4349 0.2956
O -2.9658 1.4084 1.3596
O -3.2412 0.6811 -1.0755
O 3.3575 0.1287 -0.3151
C 2.2523 0.9027 -0.4213
O 2.3542 2.0659 -0.7802
C 1.0630 0.1727 -0.0687
C 0.8579 -1.1291 0.3432
C -0.5342 -1.2774 0.5450
C -1.1348 -0.0595 0.2492
O -0.1398 0.8196 -0.1259
H 4.0757 0.7409 -0.5792
H 1.6298 -1.8755 0.4789
H -1.0558 -2.1679 0.8699