36
Molecule ID: Mol_075
F -6.4072 -1.1499 -2.5114
S -6.1841 0.0938 -1.5469
O -5.9679 1.2183 -2.4368
O -7.2703 0.0775 -0.5898
C 5.1117 -0.2453 -1.7855
C 4.0486 -0.0771 -0.7364
C 3.5813 -1.2098 -0.0531
C 2.5876 -1.1023 0.9267
C 2.0406 0.1426 1.2629
C 0.9469 0.2448 2.2945
O -0.3158 0.3698 1.6290
C -1.0027 -0.7836 1.4577
O -0.6636 -1.8919 1.8390
C -2.2712 -0.5303 0.7214
C -2.6065 0.7299 0.2103
C -3.8100 0.9091 -0.4763
C -4.6848 -0.1730 -0.6531
C -4.3592 -1.4323 -0.1530
Cl -5.3770 -2.8142 -0.3132
C -3.1517 -1.6065 0.5339
C 2.4965 1.2838 0.5928
C 3.4974 1.1686 -0.3860
N 3.9375 2.3993 -1.0359
O 3.0545 3.1665 -1.4451
O 5.1558 2.6055 -1.1133
H 4.8641 0.3232 -2.6877
H 5.2051 -1.2935 -2.0902
H 6.0824 0.0793 -1.3983
H 3.9810 -2.1964 -0.2845
H 2.2334 -2.0066 1.4223
H 0.9708 -0.5951 2.9997
H 1.0933 1.1489 2.8969
H -1.9402 1.5819 0.3340
H -4.0560 1.8952 -0.8701
H -2.8924 -2.5881 0.9309
H 2.0718 2.2578 0.8319