30
Molecule ID: Mol_232
F 6.2615 -1.8993 0.5867
S 5.8930 -0.4019 0.9671
O 6.2939 -0.2176 2.3460
O 6.3724 0.4365 -0.1101
C -4.2403 1.9847 1.2269
C -2.9591 2.2998 0.4711
C -2.6588 1.2554 -0.5588
N -1.9973 0.1427 -0.3119
C -1.8834 -0.6132 -1.4733
C -1.1580 -1.9165 -1.3989
C 0.3306 -1.7414 -1.1301
O 1.1517 -2.3802 -1.7845
N 0.6024 -0.8880 -0.0830
C 1.8270 -0.5364 0.4157
N 1.9402 0.3478 1.3808
C 3.2757 0.5170 1.6945
C 4.1533 -0.2488 0.9625
S 3.2872 -1.2100 -0.1487
C -2.4670 -0.0474 -2.5897
S -3.1747 1.4589 -2.1859
H -5.1037 1.9605 0.5533
H -4.1767 1.0119 1.7265
H -4.4269 2.7466 1.9903
H -2.1242 2.3460 1.1808
H -3.0356 3.2920 0.0110
H -1.2761 -2.4654 -2.3407
H -1.5802 -2.5366 -0.5999
H -0.1756 -0.3743 0.3284
H 3.5581 1.2171 2.4727
H -2.5095 -0.4332 -3.5989