23
Molecule ID: Mol_431
F 4.2256 0.9850 0.1001
S 2.7381 0.4058 0.6101
O 2.1422 1.3087 1.6335
O 2.9591 -0.9239 1.2479
Cl 0.6870 0.0000 0.0000
C 1.6287 0.2687 -0.7691
C 0.3013 -0.2646 -0.2159
C -0.7080 -0.4128 -1.3308
N -1.9178 0.3142 -1.0630
C -2.3861 0.0204 0.2814
C -1.2823 0.1828 1.3117
O -0.1202 0.6770 0.7214
H -0.6870 0.0000 0.0000
H 1.4732 1.2495 -1.2237
H 2.0566 -0.4604 -1.4860
H 0.4786 -1.2195 0.3158
H -0.9311 -1.4935 -1.4808
H -0.2577 0.0176 -2.2635
H -1.7466 1.3244 -1.1325
H -2.7472 -1.0449 0.2790
H -3.2222 0.7116 0.5532
H -1.0845 -0.8140 1.8017
H -1.5997 0.9044 2.1094