24
Molecule ID: Mol_325
F -4.9263 1.0778 -1.2903
S -4.7962 -0.0925 -0.2252
O -5.2847 0.4220 1.0354
O -5.2938 -1.2974 -0.8524
C -3.1173 -0.3803 0.0365
C -2.5534 -1.4547 0.6914
N -1.1925 -1.2946 0.6582
C -0.8646 -0.1125 0.0227
C -2.0612 0.4553 -0.3961
C 0.4783 0.3983 -0.2130
O 0.7112 1.1638 -1.1420
N 1.4120 -0.0348 0.7118
C 2.7634 0.2624 0.6771
C 3.7348 -0.0871 1.6429
N 4.9590 0.3372 1.3198
N 4.7715 0.9657 0.1462
C 3.4758 0.9405 -0.2807
H -3.0064 -2.3222 1.1554
H -0.5280 -1.9729 1.0083
H -2.1435 1.3840 -0.9505
H 1.0937 -0.5198 1.5368
H 3.6050 -0.6329 2.5680
H 5.5734 1.3885 -0.3104
H 3.1896 1.4063 -1.2133