25
Molecule ID: Mol_017
F 5.2981 0.5725 -0.0354
S 3.8510 0.4161 0.6137
O 4.0925 -0.1555 1.9239
O 3.2243 1.7090 0.4444
C 3.0307 -0.8001 -0.3867
C 1.6610 -1.1257 0.1728
O 0.7347 -0.1603 -0.3191
C -0.5692 -0.2866 0.0611
C -1.0906 -1.2574 0.9239
C -2.4642 -1.2760 1.2408
C -3.3338 -0.3267 0.7013
C -2.7991 0.6194 -0.1448
O -3.4966 1.6137 -0.7569
C -2.4405 2.2805 -1.4776
O -1.1535 1.6562 -1.3164
C -1.4586 0.6406 -0.4582
H 3.6725 -1.6862 -0.3621
H 2.9821 -0.4052 -1.4054
H 1.3648 -2.1142 -0.1985
H 1.6684 -1.1340 1.2686
H -0.4611 -2.0174 1.3756
H -2.8500 -2.0371 1.9157
H -4.3915 -0.3299 0.9392
H -2.6956 2.2876 -2.5435
H -2.3758 3.3168 -1.1260