33
Molecule ID: Mol_249
F 3.5094 3.3400 1.3247
S 3.4781 1.7679 1.5690
O 2.6622 1.5757 2.7509
O 4.8523 1.3237 1.4834
C -1.3146 -0.0995 2.2739
C -1.9615 -0.2204 0.9218
C -2.9240 0.7308 0.5412
C -3.5588 0.6394 -0.6975
Br -4.8450 1.9334 -1.1906
C -3.2566 -0.4008 -1.5693
C -2.3046 -1.3526 -1.2018
C -1.6477 -1.2623 0.0301
N -0.6593 -2.2276 0.3772
S 0.7132 -2.4310 -0.5803
O 1.6536 -3.1882 0.2180
O 0.3245 -2.8728 -1.9018
C 1.3576 -0.7774 -0.7197
C 1.1290 -0.0346 -1.8840
C 1.6303 1.2651 -1.9878
C 2.3625 1.8193 -0.9366
C 2.6014 1.0554 0.2093
C 2.1111 -0.2469 0.3294
H -1.5908 -0.9531 2.9011
H -0.2262 -0.0549 2.1790
H -1.6325 0.8110 2.7930
H -3.1811 1.5444 1.2168
H -3.7569 -0.4870 -2.5304
H -2.0949 -2.1736 -1.8840
H -0.4811 -2.4158 1.3618
H 0.5581 -0.4571 -2.7093
H 1.4460 1.8450 -2.8903
H 2.7419 2.8350 -1.0253
H 2.3040 -0.8303 1.2279