38
Molecule ID: Mol_059
F -7.7392 0.9558 1.2378
S -7.4918 -0.1632 0.1300
O -8.0739 0.3773 -1.0797
O -7.9272 -1.3981 0.7462
C 5.3577 -0.7991 -0.7472
C 4.8353 0.5127 -0.1576
C 5.3762 0.7693 1.2435
C 4.7848 -0.1666 2.2642
O 5.4462 -0.6540 3.1756
O 3.4154 -0.3735 2.1677
C 2.6875 0.0834 1.0536
C 1.2998 0.0458 1.1476
C 0.5512 0.4529 0.0481
O -0.8421 0.4597 0.1725
C -1.4972 -0.4466 -0.6392
O -0.9977 -1.2301 -1.4313
C -2.9683 -0.3474 -0.4201
C -3.5404 0.5488 0.4937
C -4.9281 0.5969 0.6554
C -5.7466 -0.2536 -0.0993
C -5.1919 -1.1497 -1.0112
Cl -6.1314 -2.2259 -1.9760
C -3.8020 -1.1934 -1.1681
C 1.1666 0.9171 -1.1158
C 2.5609 0.9390 -1.1947
C 3.3339 0.5205 -0.1044
H 4.9917 -0.9406 -1.7704
H 5.0381 -1.6689 -0.1623
H 6.4523 -0.7987 -0.7819
H 5.1759 1.3359 -0.7992
H 6.4663 0.6546 1.2521
H 5.1507 1.7921 1.5703
H 0.8168 -0.3014 2.0546
H -2.9220 1.2179 1.0896
H -5.3538 1.2994 1.3700
H -3.3618 -1.8929 -1.8793
H 0.5708 1.2446 -1.9630
H 3.0371 1.2800 -2.1114