32
Molecule ID: Mol_148
F -5.9042 -1.4149 -0.4687
S -5.4804 0.0718 -0.0876
O -5.9609 0.2854 1.2614
O -5.9082 0.8886 -1.2053
C 4.5219 -0.6827 -0.2725
N 3.4917 0.2520 0.1713
C 2.6247 -0.3363 1.2128
C 1.2674 -0.8972 0.7241
N 0.4976 0.1211 -0.0132
C 1.2777 1.2201 -0.6088
C 2.6990 0.7367 -0.9792
C -0.8866 0.1167 -0.0199
C -1.6196 -1.0612 0.2169
C -3.0197 -1.0839 0.2074
C -3.7158 0.0953 -0.0363
C -3.0330 1.2810 -0.2876
C -1.6330 1.2812 -0.2761
H 4.0953 -1.5997 -0.6945
H 5.1743 -0.9593 0.5632
H 5.1631 -0.2180 -1.0299
H 3.1566 -1.1084 1.7827
H 2.4140 0.4643 1.9346
H 1.4345 -1.7653 0.0754
H 0.7188 -1.2350 1.6117
H 1.3343 2.0608 0.0933
H 0.8028 1.5748 -1.5316
H 3.2441 1.5586 -1.4576
H 2.5909 -0.0590 -1.7297
H -1.1026 -2.0017 0.3910
H -3.5414 -2.0196 0.3914
H -3.5713 2.2043 -0.4903
H -1.1320 2.2295 -0.4537