24
Molecule ID: Mol_138
F -0.3820 1.2224 2.4548
S -1.5166 1.2042 1.3350
O -1.3807 2.4658 0.6315
O -2.7389 0.8950 2.0540
C -1.3899 -1.5096 0.9848
C -1.0969 -0.1976 0.2253
C -2.0334 -0.1550 -0.9984
C 0.3830 -0.0247 -0.1576
C 0.7771 0.9400 -1.1064
C 2.1186 1.1137 -1.4590
C 3.1024 0.3284 -0.8711
C 2.7444 -0.6270 0.0726
C 1.4023 -0.8004 0.4271
H -1.0667 -2.3844 0.4088
H -2.4622 -1.6267 1.1811
H -0.8933 -1.5368 1.9614
H -2.0071 0.8078 -1.5185
H -3.0770 -0.3124 -0.7012
H -1.7689 -0.9338 -1.7228
H 0.0489 1.5959 -1.5811
H 2.3923 1.8708 -2.1901
H 4.1455 0.4649 -1.1434
H 3.5119 -1.2403 0.5389
H 1.1873 -1.5604 1.1742