34
Molecule ID: Mol_087
F -6.8544 -1.9018 -1.0238
S -5.9653 -0.6592 -1.4695
O -5.3235 -1.0699 -2.7001
O -6.8300 0.4983 -1.3790
C -4.7050 -0.4782 -0.2405
C -4.9250 -0.9880 1.0433
C -3.9242 -0.8706 2.0087
C -2.7103 -0.2587 1.6872
C -2.4977 0.2287 0.3917
C -3.4948 0.1307 -0.5817
S -0.9649 1.0282 -0.0063
O -0.3064 1.4033 1.2302
O -1.2096 1.9812 -1.0633
N -0.0796 -0.2735 -0.6718
N 1.3708 -0.3442 -0.1730
C 2.3487 -0.1744 -1.1356
O 2.1068 -0.2731 -2.3356
C 3.7223 0.1156 -0.6498
C 3.9618 0.8535 0.5175
C 5.2749 1.0993 0.9269
C 6.3469 0.6176 0.1728
C 6.1119 -0.1013 -0.9983
C 4.8025 -0.3475 -1.4136
H -5.8681 -1.4650 1.3039
H -4.0892 -1.2528 3.0146
H -1.9385 -0.1672 2.4492
H -3.3345 0.5194 -1.5861
H -0.0899 -0.1961 -1.7011
H 1.5081 -0.0567 0.7938
H 3.1506 1.2768 1.1032
H 5.4643 1.6790 1.8271
H 7.3680 0.8145 0.4915
H 6.9476 -0.4648 -1.5925
H 4.6255 -0.9029 -2.3318