15
Molecule ID: Mol_133
F -2.9120 1.5589 -1.7312
S -2.9016 0.2152 -0.8838
O -3.6988 0.4668 0.2983
O -3.1738 -0.8666 -1.8056
O 2.8789 0.7699 -1.6866
C 2.6311 0.1472 -0.5135
O 3.5633 -0.2056 0.1949
C 1.2206 -0.0245 -0.2387
C 0.6687 -0.6185 0.8832
C -0.7556 -0.6332 0.8511
C -1.2535 -0.0488 -0.2957
S -0.0032 0.5080 -1.3146
H 3.8566 0.8052 -1.7244
H 1.2688 -1.0252 1.6908
H -1.3894 -1.0487 1.6267