32
Molecule ID: Mol_220
F 6.6117 2.0247 0.5624
S 6.5225 0.5244 1.0741
O 6.6626 0.5551 2.5135
O 7.3519 -0.2754 0.1992
C -6.2913 1.3128 -1.6124
C -5.0648 0.7442 -1.0176
N -5.0971 -0.3095 -0.1464
C -3.8285 -0.4927 0.1375
C -3.1681 -1.4266 0.9777
C -1.8256 -1.3923 1.0847
C -1.0125 -0.4119 0.3598
N 0.3517 -0.4865 0.5465
C 1.3230 0.3843 0.0751
O 1.0914 1.4308 -0.5180
C 2.6840 -0.0268 0.3822
C 3.7974 0.7927 0.5146
C 4.9130 -0.0286 0.8011
C 4.4725 -1.3353 0.8149
N 3.1307 -1.3249 0.5365
C -1.6510 0.4671 -0.4351
N -3.0402 0.4331 -0.5477
N -3.8488 1.2256 -1.2937
H -7.1717 0.7304 -1.3233
H -6.4386 2.3433 -1.2744
H -6.2271 1.3107 -2.7051
H -3.7672 -2.1503 1.5186
H -1.3326 -2.1095 1.7339
H 0.6695 -1.1970 1.1900
H 3.7849 1.8732 0.4199
H 5.0065 -2.2636 0.9767
H 2.5642 -2.1548 0.4147
H -1.1726 1.2335 -1.0285