33
Molecule ID: Mol_011
F 6.1970 -0.5244 -0.6153
S 5.5921 0.3306 0.5765
O 5.9244 1.7133 0.3248
O 5.9145 -0.3635 1.8050
C -2.2699 0.5725 -2.2036
C -2.1685 0.3180 -0.6813
C -2.4192 1.6414 0.0699
C -3.3319 -0.6706 -0.3613
O -3.2899 -1.1563 0.9812
C -2.1015 -1.9240 1.1561
C -0.8601 -1.0535 0.9830
N -0.8401 -0.2481 -0.2499
C 0.3525 0.3888 -0.6798
O 0.3641 1.1234 -1.6684
C 1.6463 0.1874 0.0307
C 2.9218 0.5099 -0.5230
C 3.8530 0.2293 0.4528
N 3.1235 -0.2095 1.5154
N 1.7994 -0.2487 1.2960
H -3.3115 0.7335 -2.5077
H -1.8843 -0.2815 -2.7715
H -1.7301 1.4692 -2.5209
H -1.6460 2.3833 -0.1579
H -2.4164 1.4923 1.1552
H -3.3864 2.0767 -0.2053
H -4.3026 -0.1795 -0.4978
H -3.3148 -1.5303 -1.0446
H -2.1188 -2.3509 2.1641
H -2.0983 -2.7607 0.4467
H 0.0014 -1.7253 0.9979
H -0.7959 -0.3501 1.8213
H 3.1151 0.9080 -1.5110
H 3.4811 -0.5008 2.4226