25
Molecule ID: Mol_169
F 1.8205 1.0880 -1.7929
S 2.3642 -0.1471 -0.7927
O 3.4999 0.4084 0.0117
O 2.8578 -1.2617 -1.6252
Cl 0.6923 0.0000 0.0000
C 1.0687 -0.6724 0.3435
C 0.0013 -1.2865 -0.4704
C -1.4116 -0.9646 -0.1128
C -1.8103 0.3922 -0.6630
C -1.1280 1.4679 0.1163
N -0.5816 0.9333 1.2942
C 0.7220 0.4057 1.2815
H -0.6923 0.0000 0.0000
H 1.5773 -1.4908 0.9373
H 0.0904 -1.0258 -1.5602
H 0.0753 -2.3998 -0.4764
H -1.6746 -1.1094 0.9375
H -2.0542 -1.6878 -0.6784
H -2.9045 0.5197 -0.5530
H -1.4851 0.4045 -1.7241
H -0.3312 2.0081 -0.4367
H -1.8641 2.2704 0.4167
H -1.2004 0.7233 2.0872
H 0.9546 0.1457 2.3569
H 1.4134 1.2787 1.1031