16
Molecule ID: Mol_311
F 2.9590 1.1778 1.3743
S 2.6560 0.1702 0.1805
O 3.1362 -1.1195 0.6318
O 3.1510 0.8124 -1.0185
O -3.2244 -0.2310 -0.2424
C -1.8643 -0.1345 -0.1502
C -1.0616 -1.1420 -0.6896
C 0.3276 -1.0450 -0.5950
C 0.8975 0.0659 0.0345
C 0.1038 1.0743 0.5841
C -1.2844 0.9700 0.4855
Br -2.3455 2.3527 1.2327
H -3.4639 -1.0450 -0.7146
H -1.4992 -2.0063 -1.1817
H 0.9565 -1.8318 -1.0083
H 0.5556 1.9317 1.0768