32
Molecule ID: Mol_357
F 5.2181 1.6727 0.6727
S 5.7730 0.2470 0.2395
O 7.0955 0.4930 -0.2990
O 5.5745 -0.6193 1.3839
C 4.7309 -0.3185 -1.0833
C 3.2552 -0.0145 -0.8744
C 2.6380 -0.7482 0.3162
N 1.1971 -0.6150 0.3301
C 0.5694 0.5536 0.7015
O 1.1940 1.5313 1.1108
C -0.9525 0.5501 0.6528
S -1.6195 -0.6265 -0.5758
C -3.3634 -0.2789 -0.3617
C -4.0943 -1.1385 0.4715
C -5.4591 -0.9324 0.6867
C -6.1102 0.1314 0.0674
C -5.3980 0.9884 -0.7713
C -4.0308 0.7859 -0.9901
Cl -3.2254 1.8882 -2.0529
H 4.9078 -1.3918 -1.2041
H 5.0787 0.1885 -1.9897
H 2.7151 -0.2979 -1.7869
H 3.1139 1.0667 -0.7580
H 3.0184 -0.3494 1.2613
H 2.8601 -1.8192 0.2729
H 0.6284 -1.3185 -0.1317
H -1.3229 0.2906 1.6494
H -1.2816 1.5618 0.3974
H -3.6081 -1.9798 0.9616
H -6.0140 -1.6056 1.3364
H -7.1730 0.2914 0.2332
H -5.9153 1.8132 -1.2559