42
Molecule ID: Mol_103
F 7.6487 1.4027 -0.9657
S 6.8063 1.4539 0.4979
O 6.2358 2.8200 0.7399
O 7.8514 1.1072 1.5489
Cl 0.6902 0.0000 0.0000
C 5.5879 0.2062 0.4413
C 5.8489 -1.0827 0.8934
C 4.8464 -2.0511 0.8300
C 3.6000 -1.7887 0.3367
C 3.3328 -0.5049 -0.1158
C 4.3250 0.4547 -0.0535
N 2.0415 -0.1959 -0.6389
C 0.8443 -0.7175 -0.3213
C -0.0901 -0.0709 -1.1229
C -1.5465 -0.2681 -1.1751
N -2.1494 0.6803 -0.2331
C -3.5645 0.4743 -0.3042
C -3.9262 -0.9230 0.1373
C -5.3217 -0.9187 0.7191
O -6.1596 -0.0331 0.0680
C -5.8032 1.2886 0.1453
C -4.3504 1.4836 0.5096
N 0.5712 0.8122 -1.8907
N 1.8644 0.7178 -1.5786
H -0.6902 0.0000 0.0000
H 6.8254 -1.3412 1.2959
H 5.1115 -3.0273 1.1939
H 2.8662 -2.5822 0.3129
H 4.0776 1.4342 -0.4135
H 0.6584 -1.4786 0.4047
H -1.7964 -1.3114 -0.8931
H -1.9047 -0.1148 -2.2138
H -1.8524 1.6340 -0.4482
H -3.8983 0.6053 -1.3603
H -3.7996 -1.6411 -0.6942
H -3.2386 -1.2707 0.9346
H -5.7326 -1.9386 0.5588
H -5.2496 -0.7536 1.7930
H -6.4023 1.8717 0.8754
H -5.9331 1.7106 -0.8901
H -4.0502 2.5140 0.2061
H -4.1740 1.3424 1.6019