48
Molecule ID: Mol_062
F 7.3122 1.0649 -1.3034
S 6.8604 1.4121 0.1822
O 6.3669 2.7734 0.1518
O 7.9676 1.0110 1.0271
O -4.5059 2.6570 0.7612
C -5.3924 1.6760 0.5147
O -6.5670 1.8134 0.8194
C -4.7799 0.4354 -0.0956
C -4.1458 -0.4225 1.0044
C -3.1098 -1.3785 0.4225
C -1.9032 -0.6327 -0.2147
C -2.3490 0.7464 -0.7819
C -3.8069 0.7590 -1.2413
C -0.7991 -0.4271 0.8541
C 0.5064 0.0992 0.2620
N 0.9963 -0.7691 -0.8111
C 0.0336 -1.0398 -1.8738
C -1.3083 -1.5331 -1.3282
C 2.3428 -0.7633 -1.1917
O 2.7249 -0.9212 -2.3501
C 3.3875 -0.6026 -0.1515
C 3.3421 -1.3446 1.0373
C 4.3590 -1.2107 1.9867
C 5.4303 -0.3508 1.7435
C 5.4809 0.3627 0.5413
C 4.4733 0.2366 -0.4174
H -5.0484 3.3690 1.1613
H -5.6172 -0.1181 -0.5426
H -3.6808 0.2035 1.7763
H -4.9317 -0.9945 1.5128
H -3.6076 -2.0034 -0.3312
H -2.7702 -2.0681 1.2038
H -2.2223 1.5227 -0.0190
H -1.7163 1.0528 -1.6190
H -4.0454 1.7285 -1.6950
H -3.9296 0.0118 -2.0351
H -1.1453 0.2560 1.6380
H -0.5869 -1.3851 1.3468
H 1.2444 0.2060 1.0594
H 0.3708 1.1016 -0.1625
H -0.0834 -0.1234 -2.4632
H 0.4410 -1.7995 -2.5523
H -1.1566 -2.5435 -0.9242
H -2.0174 -1.6334 -2.1583
H 2.5220 -2.0352 1.2207
H 4.3193 -1.7847 2.9115
H 6.2235 -0.2570 2.4834
H 4.5212 0.7814 -1.3587