27
Molecule ID: Mol_039
F 5.3480 0.3385 -1.5407
S 4.8619 -0.2403 -0.1375
O 5.4126 0.6525 0.8650
O 5.2288 -1.6434 -0.1935
C 3.0910 -0.0889 -0.0999
N 2.4585 -1.1754 0.4188
C 1.1043 -1.1237 0.4549
C 0.3129 -0.0581 0.0087
C 1.0334 1.0290 -0.5112
C 2.4340 1.0302 -0.5744
Br 3.2786 2.5748 -1.2656
N -1.0669 -0.0620 0.0751
C -1.9021 0.8502 -0.7271
C -3.2811 0.2193 -0.9861
O -4.0112 -0.0985 0.2056
C -3.1702 -0.4048 1.3254
C -1.8054 -1.0011 0.9400
H 0.6544 -2.0268 0.8595
H 0.5006 1.9132 -0.8528
H -2.0190 1.7939 -0.1819
H -1.4416 1.0579 -1.6996
H -3.9002 0.8997 -1.5794
H -3.1707 -0.7070 -1.5626
H -3.7179 -1.1026 1.9668
H -3.0304 0.5212 1.8957
H -1.9478 -1.9439 0.3991
H -1.2545 -1.2040 1.8654