21
Molecule ID: Mol_427
F -2.4883 -0.0423 2.0762
S -3.2316 -0.4752 0.7358
O -4.5629 0.0905 0.8451
O -3.0353 -1.9077 0.6256
O 3.9411 0.8096 0.6616
C 3.3466 -0.2346 0.0579
O 3.9872 -1.2032 -0.3055
C 1.8829 -0.0529 -0.0965
C 1.2268 1.1041 0.3378
C -0.1554 1.2331 0.1710
C -0.8994 0.2079 -0.4321
C -2.3889 0.3455 -0.6039
C -0.2355 -0.9494 -0.8643
C 1.1458 -1.0788 -0.6975
H 4.8863 0.5512 0.6975
H 1.7829 1.9121 0.8080
H -0.6398 2.1447 0.5179
H -2.6911 1.3975 -0.5923
H -2.7291 -0.0986 -1.5444
H -0.7864 -1.7675 -1.3281
H 1.6441 -1.9861 -1.0357