35
Molecule ID: Mol_022
F 5.2934 0.8162 2.2514
S 5.3084 0.2793 0.7536
O 5.9725 1.3014 -0.0260
O 5.8065 -1.0777 0.8393
C -2.3895 -1.2506 1.2786
C -1.4907 -0.0105 1.2978
C -2.0278 0.9896 2.3303
C -1.2932 0.6745 -0.0883
N -0.2658 -0.0127 -0.9100
C -0.6777 -1.0520 -1.8440
C -1.8388 -0.5348 -2.6944
N -2.9140 0.0194 -1.9024
C -2.6469 0.8407 -0.8330
O -3.5195 1.6262 -0.4611
C 1.0518 0.0506 -0.5180
N 1.4172 0.9778 0.3885
C 2.7150 1.0434 0.7514
C 3.6616 0.2107 0.2308
C 3.2309 -0.7167 -0.6726
N 1.9399 -0.8044 -1.0596
H -3.4124 -1.0120 0.9711
H -1.9983 -2.0211 0.6115
H -2.4466 -1.6938 2.2793
H -0.5150 -0.3395 1.6762
H -3.0412 1.3227 2.0872
H -2.0589 0.5345 3.3264
H -1.3817 1.8716 2.3921
H -0.9495 1.7081 0.0605
H 0.1226 -1.3399 -2.5361
H -0.9736 -1.9537 -1.2993
H -2.2545 -1.3364 -3.3125
H -1.4893 0.2647 -3.3581
H -3.7841 0.2533 -2.3648
H 2.9477 1.8098 1.4848
H 3.9014 -1.4388 -1.1305