23
Molecule ID: Mol_153
F -0.7916 3.0618 0.8375
S -1.7504 1.9387 0.2405
O -1.6810 2.0995 -1.1977
O -3.0007 2.1164 0.9550
C -1.0524 0.3534 0.7271
C -2.0182 -0.7538 0.2969
C -1.2796 -2.0697 0.2064
O -0.2671 -1.9979 -0.7981
C 0.6301 -0.9835 -0.5949
C 1.8845 -1.1625 -1.1815
C 2.8911 -0.2212 -0.9813
C 2.6355 0.8905 -0.1859
Br 4.0080 2.1524 0.1286
C 1.3742 1.0841 0.3855
C 0.3345 0.1674 0.1502
H -0.9780 0.3636 1.8213
H -2.8561 -0.8212 0.9997
H -2.4436 -0.5266 -0.6895
H -0.8342 -2.3622 1.1658
H -1.9730 -2.8652 -0.0862
H 2.0810 -2.0487 -1.7800
H 3.8672 -0.3727 -1.4341
H 1.2198 1.9574 1.0146