15
Molecule ID: Mol_470
F -2.6271 -1.7904 0.3629
S -2.3443 -0.3686 -0.2986
O -3.0668 0.5762 0.5263
O -2.6040 -0.5563 -1.7101
C -0.6210 -0.0578 -0.0993
C 0.1484 -1.0314 0.5530
C 1.5135 -0.8199 0.7285
Cl 2.4643 -2.0087 1.5273
C 2.1132 0.3472 0.2615
C 1.3409 1.3142 -0.3880
C -0.0328 1.1174 -0.5727
Br -0.9843 2.4928 -1.4661
H -0.3040 -1.9484 0.9238
H 3.1796 0.5125 0.3986
H 1.8245 2.2212 -0.7472