16
Molecule ID: Mol_353
F -3.3085 -0.7775 0.8545
S -2.6334 -0.1992 -0.4648
O -2.7923 -1.2295 -1.4691
O -3.1525 1.1416 -0.6253
O 3.1654 0.2399 0.6304
C 1.8224 0.1436 0.3708
C 1.3425 0.2200 -0.9422
Cl 2.4355 0.4355 -2.2589
C -0.0222 0.1210 -1.2036
C -0.9045 -0.0505 -0.1337
C -0.4451 -0.1353 1.1820
C 0.9250 -0.0347 1.4298
Cl 1.4697 -0.1385 3.0635
H 3.6315 0.3617 -0.2180
H -0.3953 0.1751 -2.2246
H -1.1380 -0.2733 2.0091