20
Molecule ID: Mol_231
F 4.0664 0.3596 1.1148
S 3.1661 0.9149 -0.0754
O 3.8056 0.4662 -1.2942
O 2.9596 2.3170 0.2264
C -3.2234 0.3101 -0.6780
N -1.8698 0.7013 -1.0292
C -0.7832 0.0988 -0.3910
C -0.8515 -1.1458 0.2508
C 0.2827 -1.7425 0.8177
C 1.5210 -1.1162 0.7268
C 1.6080 0.0963 0.0466
C 0.4758 0.6993 -0.5122
H -3.4299 -0.7238 -0.9720
H -3.4087 0.4343 0.3940
H -3.9321 0.9475 -1.2164
H -1.7608 1.7101 -1.1079
H -1.7936 -1.6821 0.3228
H 0.1912 -2.7029 1.3197
H 2.3986 -1.5846 1.1644
H 0.5779 1.6424 -1.0456