33
Molecule ID: Mol_277
F 6.6823 0.0594 0.0693
S 5.7011 1.2864 -0.1810
O 5.8272 2.1436 0.9781
O 5.9799 1.7406 -1.5271
C -3.3557 1.6018 -0.0556
C -3.4820 0.1211 -0.4054
S -4.9664 -0.5448 0.4349
C -4.0569 -1.5597 1.6335
C -2.6179 -1.0818 1.5638
C -2.3354 -0.7810 0.0916
N -0.9999 -0.2324 -0.0989
C 0.1115 -1.0442 -0.1501
O 0.0435 -2.2683 -0.0984
C 1.4512 -0.3893 -0.2015
C 2.5093 -1.1143 0.3856
C 3.8103 -0.6078 0.4045
C 4.0565 0.6365 -0.1693
C 3.0311 1.3662 -0.7756
C 1.7275 0.8535 -0.7941
Cl 0.5439 1.8141 -1.6081
H -3.1799 1.7675 1.0126
H -2.5259 2.0591 -0.6035
H -4.2591 2.1534 -0.3407
H -3.6017 0.0202 -1.4895
H -4.1364 -2.6096 1.3346
H -4.4751 -1.4495 2.6377
H -1.9389 -1.8450 1.9605
H -2.4756 -0.1868 2.1828
H -2.3765 -1.7275 -0.4669
H -0.8635 0.7683 -0.0223
H 2.3147 -2.0885 0.8364
H 4.6066 -1.1874 0.8670
H 3.2503 2.3265 -1.2413