46
Molecule ID: Mol_097
F 3.7192 -0.9464 -2.8035
S 3.6361 -1.9018 -1.4115
O 2.2800 -2.4534 -1.2849
O 4.5742 -3.0917 -1.5975
Cl 0.6851 0.0000 0.0000
C 4.1283 -0.9559 -0.0592
C 5.2152 -1.3882 0.7043
C 5.6890 -0.6800 1.7832
C 5.0649 0.5083 2.1272
C 3.9910 0.9431 1.3803
C 3.5100 0.2202 0.2823
C 2.3594 0.7765 -0.3929
C 2.5369 1.9874 -1.0507
C 1.4710 2.6114 -1.7025
C 0.2122 2.0497 -1.7150
C 0.0367 0.8472 -1.0609
C -1.3272 0.2366 -1.0730
N -2.1602 0.7879 -0.0279
C -3.4484 0.1689 -0.0924
C -3.3647 -1.2942 0.1622
C -4.6176 -1.9652 0.6030
O -5.5445 -1.1813 1.2367
C -5.7507 0.0478 0.6234
C -4.4608 0.8218 0.8145
C 1.1040 0.2300 -0.4124
H -0.6851 0.0000 0.0000
H 5.7171 -2.3195 0.4479
H 6.5293 -1.0663 2.3308
H 5.4541 1.0398 2.9718
H 3.5323 1.8632 1.6717
H 3.4884 2.4992 -1.0922
H 1.6113 3.5556 -2.2153
H -0.6302 2.5177 -2.2158
H -1.2620 -0.8593 -0.9159
H -1.7694 0.4259 -2.0728
H -2.2654 1.8153 -0.2404
H -3.8261 0.3158 -1.1304
H -3.0687 -1.7809 -0.8132
H -2.5033 -1.5485 0.8483
H -5.0790 -2.5915 -0.2172
H -4.3290 -2.7468 1.3670
H -6.5850 0.5493 1.1157
H -5.9161 -0.0373 -0.4674
H -4.1934 0.8136 1.8777
H -4.6489 1.8625 0.4979
H 0.8903 -0.6863 0.0894