41
Molecule ID: Mol_100
F 8.1808 1.0962 1.7393
S 7.7603 0.0578 0.4892
O 8.2567 0.6576 -0.8042
O 8.3822 -1.2799 0.6718
Cl 0.6927 0.0000 0.0000
C 6.0166 -0.0926 0.4311
C 5.2712 0.7902 -0.3558
C 3.8902 0.6482 -0.3834
C 3.2492 -0.3391 0.3452
C 3.9959 -1.1937 1.1097
C 5.3857 -1.0938 1.1720
N 1.8333 -0.4827 0.3154
C 0.9079 0.4737 0.1017
C -0.3417 -0.1087 0.1597
C -1.6829 0.5109 -0.0082
C -2.7752 -0.5222 0.1395
C -4.0748 0.1917 -0.0442
C -5.2767 -0.6967 0.0724
C -6.3748 0.2366 -0.4434
C -5.6329 1.2060 -1.3253
N -4.2323 0.7840 -1.3425
N -0.1256 -1.4315 0.4130
N 1.1969 -1.6264 0.5017
H -0.6927 0.0000 0.0000
H 5.7544 1.5773 -0.9395
H 3.3434 1.3321 -0.9899
H 3.5631 -1.9868 1.7034
H 5.9907 -1.7493 1.7616
H 1.0961 1.5303 -0.0863
H -1.8184 0.9608 -1.0296
H -1.7765 1.3013 0.7431
H -2.6729 -1.2958 -0.6476
H -2.7723 -1.0395 1.1029
H -4.1834 1.0023 0.7195
H -5.4275 -0.9578 1.1358
H -5.1710 -1.5795 -0.5854
H -6.7809 0.7660 0.4351
H -7.1410 -0.3432 -0.9841
H -5.6376 2.2277 -0.8509
H -6.0537 1.2530 -2.3470
H -4.1224 0.0949 -2.0957