28
Molecule ID: Mol_396
F -3.4971 2.0490 0.7053
S -4.6947 1.0544 0.3976
O -5.2682 1.4765 -0.8634
O -5.4881 1.0297 1.6108
C 5.7390 -0.1488 0.9077
C 4.2963 -0.0648 0.5196
N 3.8117 1.1395 0.1675
C 2.4976 1.1916 -0.1515
C 1.6490 0.1026 -0.1268
C 2.2545 -1.0763 0.2571
N 3.5612 -1.1907 0.5874
C 0.2545 0.2200 -0.4760
C -0.7010 -0.7740 -0.4773
N -1.8350 -0.1343 -0.8822
C -3.1586 -0.6884 -1.0548
C -4.0092 -0.5632 0.1893
N -1.6103 1.1617 -1.1225
N -0.3309 1.3962 -0.8695
H 6.3289 0.5920 0.3594
H 6.1412 -1.1413 0.6828
H 5.8435 0.0399 1.9800
H 2.1437 2.1802 -0.4360
H 1.7055 -2.0107 0.3205
H -0.6785 -1.8276 -0.2417
H -3.6107 -0.2165 -1.9335
H -3.0190 -1.7493 -1.2946
H -4.8675 -1.2402 0.1163
H -3.4579 -0.8074 1.1029