35
Molecule ID: Mol_387
F -4.6927 3.4325 -0.9544
S -4.4164 1.9765 -1.5358
O -3.7103 2.1754 -2.7844
O -5.6845 1.2807 -1.4558
C 3.2351 0.5344 -2.4128
C 2.7459 -0.5788 -1.4983
C 2.2149 -0.0203 -0.1761
C 1.5988 -1.0948 0.7341
C 2.6227 -2.1133 1.2261
N 1.0241 -0.4104 1.8997
S -0.4710 -0.8583 2.5009
O -0.6080 -2.2915 2.3681
O -0.6214 -0.1872 3.7728
C -1.5729 -0.0677 1.3522
C -1.7177 1.3249 1.3974
C -2.5844 1.9578 0.5055
C -3.2959 1.1853 -0.4179
C -3.1681 -0.2079 -0.4541
C -2.3000 -0.8387 0.4377
H 2.4227 1.2261 -2.6582
H 3.6188 0.1158 -3.3488
H 4.0415 1.1046 -1.9397
H 1.9569 -1.1427 -2.0097
H 3.5756 -1.2696 -1.3141
H 3.0230 0.5022 0.3535
H 1.4508 0.7389 -0.3926
H 0.8121 -1.6142 0.1752
H 3.4608 -1.6218 1.7326
H 2.1710 -2.8089 1.9417
H 3.0234 -2.7074 0.3996
H 1.6369 0.0485 2.5723
H -1.1595 1.9124 2.1245
H -2.6934 3.0393 0.5381
H -3.7409 -0.8000 -1.1654
H -2.1979 -1.9219 0.4170