43
Molecule ID: Mol_093
F 2.7655 -3.7194 1.5944
S 2.0153 -2.9973 0.3925
O 2.4142 -3.7032 -0.8075
O 0.6252 -2.8985 0.7943
C -2.4511 -0.4814 -2.7164
C -1.6405 0.3891 -1.7969
C -0.5802 1.1328 -2.3209
C 0.1815 1.9524 -1.4918
C -0.1090 2.0445 -0.1210
C -1.1754 1.3118 0.4416
C -1.5797 1.4545 1.8848
C -1.8981 0.4546 -0.4151
O -2.9326 -0.2936 0.0946
C -2.4616 -1.5846 0.4949
C -3.5963 -2.3571 1.1294
O -4.0232 -3.4440 0.7711
O -4.1253 -1.7431 2.2096
S 0.9560 3.1000 0.8619
O 0.1478 3.7935 1.8403
O 1.8212 3.8354 -0.0371
N 1.9058 1.9864 1.7199
C 2.5618 0.9541 0.9956
C 3.6105 1.2543 0.1250
C 4.1930 0.2476 -0.6484
C 3.7205 -1.0613 -0.5605
C 2.6737 -1.3536 0.3182
C 2.0898 -0.3525 1.1005
H -3.5022 -0.5092 -2.4119
H -2.0500 -1.4993 -2.7217
H -2.4290 -0.0950 -3.7412
H -0.3450 1.0854 -3.3825
H 1.0019 2.5198 -1.9285
H -2.3395 0.7287 2.1876
H -2.0090 2.4459 2.0578
H -0.7268 1.2936 2.5489
H -1.6548 -1.5086 1.2328
H -2.1094 -2.1553 -0.3714
H -4.8509 -2.3395 2.4886
H 1.5002 1.7654 2.6276
H 3.9777 2.2755 0.0377
H 5.0058 0.4915 -1.3295
H 4.1652 -1.8356 -1.1834
H 1.2571 -0.5851 1.7595