32
Molecule ID: Mol_128
F -6.8865 1.2678 -0.5699
S -6.4636 -0.2651 -0.5005
O -6.8795 -0.8526 -1.7576
O -6.9576 -0.7455 0.7754
N 6.1317 0.8381 1.4590
C 5.2168 -0.0704 1.9236
O 4.8000 -0.0163 3.0783
C 4.7717 -1.1246 0.9423
N 3.7232 -0.6079 0.0976
C 2.3729 -0.7233 0.2537
C 1.8455 -0.0488 -0.8353
N 2.8954 0.4303 -1.5917
N 4.0344 0.0805 -1.0112
C 0.4475 0.1787 -1.2212
O 0.1691 0.7729 -2.2587
N -0.4836 -0.3323 -0.3242
C -1.8910 -0.2843 -0.4210
C -2.5870 0.3218 -1.4725
C -3.9865 0.3249 -1.4933
C -4.6930 -0.2871 -0.4572
C -4.0182 -0.8976 0.6002
C -2.6199 -0.8916 0.6144
H 6.3370 1.6120 2.0820
H 6.1578 1.0564 0.4654
H 4.3917 -1.9970 1.4853
H 5.6061 -1.4508 0.3121
H 1.9391 -1.2459 1.0932
H -0.1198 -0.7925 0.4982
H -2.0724 0.8031 -2.2996
H -4.5075 0.7963 -2.3253
H -4.5630 -1.3771 1.4116
H -2.1108 -1.3733 1.4470