16
Molecule ID: Mol_439
F -2.6892 -1.7462 1.0376
S -1.9810 -0.4539 1.6377
O -1.4359 -0.8587 2.9162
O -2.9482 0.6158 1.5046
O 1.2112 -1.5913 -2.1521
C 0.8425 -0.6696 -1.2184
C 1.5025 0.5515 -1.1017
C 1.0832 1.4627 -0.1299
Br 1.9682 3.1253 0.0352
C 0.0196 1.1621 0.7179
C -0.6203 -0.0728 0.5822
C -0.2212 -0.9944 -0.3854
H 1.9650 -1.2491 -2.6624
H 2.3329 0.7995 -1.7559
H -0.3103 1.8735 1.4719
H -0.7187 -1.9543 -0.4974