19
Molecule ID: Mol_063
F -3.8568 -0.0911 -1.0028
S -3.2685 0.1194 0.4606
O -3.6289 1.4681 0.8436
O -3.6835 -1.0445 1.2162
O 3.2595 -0.0330 -1.1775
C 2.7547 -0.1451 0.0683
O 3.4863 -0.2923 1.0286
C 1.2731 -0.0685 0.1017
C 0.6550 -0.1741 1.3590
C -0.7360 -0.1112 1.4726
C -1.5080 0.0636 0.3215
C -0.9154 0.1633 -0.9368
C 0.4737 0.0990 -1.0403
O 0.9743 0.2079 -2.3087
H 4.2303 -0.1013 -1.0278
H 1.2574 -0.3080 2.2572
H -1.2064 -0.1995 2.4505
H -1.5136 0.2941 -1.8354
H 1.9527 0.1532 -2.2504