17
Molecule ID: Mol_424
F 2.3412 -1.7652 0.9956
S 2.5488 -0.5755 -0.0363
O 3.7203 0.1514 0.3965
O 2.4002 -1.1461 -1.3565
C 1.2023 0.5053 0.1687
C 1.1391 1.8369 0.5193
N -0.1506 2.2800 0.5852
C -0.9026 1.2473 0.2702
N -2.2638 1.1836 0.1961
C -2.7701 0.0395 -0.1429
C -2.0120 -1.2023 -0.4521
C -0.6797 -1.0933 -0.3608
N -0.1105 0.1274 -0.0003
H 1.9710 2.4972 0.7354
H -3.8667 -0.0540 -0.2167
H -2.5417 -2.1021 -0.7305
H -0.0252 -1.9301 -0.5709