34
Molecule ID: Mol_251
F 4.1387 2.9733 -0.1508
S 5.2223 1.8419 -0.4267
O 6.1809 1.9515 0.6543
O 5.6008 1.9853 -1.8172
O -3.9654 3.8737 -0.1373
N -4.8312 2.9950 -0.0262
O -6.0513 3.2115 0.0078
C -4.3834 1.5985 0.0729
C -5.3364 0.5790 0.2075
C -4.9402 -0.7594 0.3044
C -3.5673 -1.0244 0.2609
N -2.8735 -2.2023 0.3295
N -1.5383 -2.0654 0.2535
C -1.3545 -0.7321 0.1282
C -0.0002 -0.1571 0.0123
O 0.1863 1.0491 -0.0996
N 0.9762 -1.1351 0.0491
C 2.3698 -0.9870 -0.0339
C 3.1411 -2.1563 0.0393
C 4.5367 -2.1036 -0.0315
C 5.1776 -0.8778 -0.1790
C 4.4073 0.2838 -0.2587
C 3.0116 0.2426 -0.1826
C -2.5996 -0.0342 0.1281
C -3.0073 1.3121 0.0309
H -6.4008 0.8097 0.2391
H -5.6749 -1.5525 0.4088
H -3.2574 -3.1361 0.4290
H 0.5969 -2.0747 0.1519
H 2.6641 -3.1273 0.1550
H 5.1194 -3.0199 0.0303
H 6.2635 -0.8309 -0.2301
H 2.4515 1.1700 -0.2454
H -2.2630 2.0991 -0.0736