23
Molecule ID: Mol_052
F -2.7428 2.4123 0.9412
S -1.5742 2.6720 -0.1050
O -2.2149 2.7973 -1.3984
O -0.7862 3.7459 0.4681
O 3.6431 -0.7850 -1.2649
C 2.9379 0.3587 -1.2935
O 3.4074 1.3835 -1.7501
C 1.5778 0.2106 -0.7199
C 1.1121 -1.0201 -0.2305
C -0.1697 -1.0798 0.2966
C -0.9133 -2.2527 0.8124
C -2.0828 -1.5243 1.4722
O -2.2205 -0.2146 0.8696
C -0.9877 0.0411 0.3344
C -0.5498 1.2494 -0.1615
C 0.7466 1.3470 -0.6840
H 4.5036 -0.5409 -1.6679
H 1.7330 -1.9111 -0.2670
H -1.2552 -2.8789 -0.0178
H -0.3498 -2.8541 1.5301
H -1.9049 -1.3801 2.5456
H -3.0208 -2.0769 1.3558
H 1.1111 2.3009 -1.0656