14
Molecule ID: Mol_028
F 2.8697 0.1866 0.9879
S 2.1838 0.0098 -0.4355
O 2.4740 1.2158 -1.1820
O 2.6220 -1.2936 -0.8951
C 0.4585 -0.0614 -0.1942
C -0.2701 -0.9861 -0.9177
N -1.6093 -1.1372 -0.7893
C -2.2400 -0.3356 0.0942
C -1.5879 0.6129 0.8612
C -0.2082 0.7486 0.7130
Cl 0.5776 1.9450 1.6727
H 0.1931 -1.6549 -1.6406
H -3.3146 -0.4808 0.1703
H -2.1487 1.2309 1.5550