45
Molecule ID: Mol_047
F 4.8418 -1.6298 -0.6052
S 5.7382 -0.5954 0.2032
O 6.1026 0.4317 -0.7508
O 6.7470 -1.4035 0.8589
C 4.7100 0.1231 1.4614
C 3.2851 0.5255 1.0657
C 2.3536 -0.6746 0.8456
C 0.9205 -0.2176 0.5732
N 0.8561 0.7673 -0.5085
C 1.7667 1.9049 -0.4031
C 3.2059 1.4633 -0.1442
C -0.2891 0.9526 -1.2927
O -0.5017 1.9497 -1.9768
C -1.2980 -0.1274 -1.3207
C -1.0349 -1.2307 -2.1419
C -1.9424 -2.2832 -2.1918
C -3.1049 -2.2325 -1.4229
C -3.3791 -1.1286 -0.5963
C -4.6715 -1.1154 0.1848
C -4.6769 -0.0942 1.3185
C -4.1895 1.2546 0.8106
C -2.7444 1.1555 0.3238
C -2.4806 -0.0429 -0.5594
H 4.6724 -0.6012 2.2830
H 5.2567 1.0006 1.8259
H 2.8863 1.0767 1.9302
H 2.3641 -1.3311 1.7232
H 2.6923 -1.2697 -0.0083
H 0.4942 0.2553 1.4663
H 0.3075 -1.0943 0.3509
H 1.7345 2.5052 -1.3190
H 1.4051 2.5391 0.4154
H 3.5713 0.9520 -1.0423
H 3.8369 2.3451 0.0141
H -0.1284 -1.2628 -2.7410
H -1.7493 -3.1404 -2.8315
H -3.8089 -3.0613 -1.4758
H -4.8618 -2.1094 0.6072
H -5.4880 -0.8899 -0.5127
H -5.6897 -0.0018 1.7262
H -4.0298 -0.4365 2.1359
H -4.2588 2.0063 1.6049
H -4.8360 1.5936 -0.0089
H -2.5068 2.0828 -0.2090
H -2.0782 1.0891 1.1931