22
Molecule ID: Mol_418
F 4.5049 -1.6121 -0.9493
S 4.0594 -0.2244 -0.3103
O 4.5353 0.7986 -1.2224
O 4.5021 -0.2739 1.0710
C -2.5169 0.7061 -1.2797
C -1.8852 -0.4448 -0.4951
C -2.5302 -0.5913 0.8840
C -0.3828 -0.2947 -0.3957
C 0.2197 0.7826 0.2527
C 1.6061 0.8505 0.3021
C 2.3032 -0.1710 -0.3084
N 1.7240 -1.2167 -0.9323
N 0.3627 -1.2712 -0.9736
H -3.5902 0.5355 -1.4168
H -2.0626 0.7991 -2.2725
H -2.3956 1.6663 -0.7664
H -2.0929 -1.3692 -1.0507
H -3.6038 -0.7866 0.7883
H -2.0855 -1.4259 1.4377
H -2.4093 0.3131 1.4903
H -0.3784 1.5614 0.7162
H 2.1161 1.6685 0.7988