16
Molecule ID: Mol_473
F 2.2085 -1.5705 -0.9396
S 2.0531 -0.6295 0.3312
O 1.7382 -1.4922 1.4487
O 3.1723 0.2859 0.3126
C -1.0190 -1.5794 0.1102
N -0.6684 -0.1812 -0.0327
C -1.5839 0.8147 -0.2664
C -0.9101 2.0112 -0.3315
C 0.4582 1.7260 -0.1315
C 0.6020 0.3558 0.0512
H -0.9355 -1.8483 1.1657
H -0.3459 -2.1795 -0.5062
H -2.0472 -1.7312 -0.2292
H -2.6405 0.5968 -0.3621
H -1.3566 2.9830 -0.5014
H 1.2748 2.4385 -0.1191