24
Molecule ID: Mol_098
F 4.3262 -1.3066 0.5287
S 3.1061 -0.4895 -0.0960
O 2.6805 -1.2905 -1.2261
O 3.6194 0.8572 -0.2531
C 1.8585 -0.5187 1.1833
C 0.6674 0.3118 0.7673
C 0.6673 1.6733 1.1284
C -0.3971 2.5013 0.7936
C -1.4809 1.9841 0.0930
C -1.5142 0.6363 -0.2901
C -2.6204 0.1436 -1.0017
C -2.6806 -1.1882 -1.4041
C -1.6317 -2.0439 -1.1013
C -0.5249 -1.5695 -0.3916
C -0.4331 -0.2238 0.0370
H 2.3205 -0.1103 2.0888
H 1.5977 -1.5587 1.3923
H 1.5080 2.1044 1.6707
H -0.3819 3.5513 1.0747
H -2.3041 2.6493 -0.1600
H -3.4496 0.8015 -1.2543
H -3.5411 -1.5521 -1.9588
H -1.6655 -3.0818 -1.4227
H 0.2733 -2.2806 -0.1980