18
Molecule ID: Mol_032
F 3.8826 1.7270 0.0624
S 3.5272 0.2411 -0.3719
O 3.8045 0.1376 -1.7888
O 4.1113 -0.6390 0.6178
C 1.7639 0.0495 -0.2089
C 0.9426 -1.0453 -0.4575
C -0.3906 -0.6648 -0.1647
C -1.6484 -1.2920 -0.2067
C -2.7727 -0.5479 0.1767
Br -4.4789 -1.3669 0.1299
C -2.6631 0.7818 0.5918
C -1.4173 1.4177 0.6381
C -0.3169 0.6560 0.2521
O 0.9695 1.0899 0.2281
H 1.2878 -2.0074 -0.8119
H -1.7417 -2.3248 -0.5281
H -3.5502 1.3397 0.8849
H -1.3097 2.4478 0.9568