29
Molecule ID: Mol_482
F -5.8066 0.5662 0.8296
S -5.2305 0.8492 -0.6279
O -6.0480 0.0562 -1.5214
O -5.1501 2.2904 -0.7336
C 5.3588 0.0242 -0.2304
C 4.4201 -1.0066 -0.8393
C 3.0133 -0.8320 -0.3513
C 2.0203 -0.0287 -0.8770
C 0.8074 -0.1269 -0.1348
C -0.4568 0.5427 -0.3538
O -0.6491 1.3034 -1.2980
N -1.4380 0.2243 0.5877
C -2.7540 0.8435 0.4576
C -3.5894 0.1784 -0.6218
C -1.1912 -0.6855 1.6027
N -0.0759 -1.3080 1.8093
C 0.9057 -0.9993 0.9250
S 2.4593 -1.6949 1.0242
H 5.0410 1.0436 -0.4747
H 6.3744 -0.1155 -0.6140
H 5.3934 -0.0642 0.8607
H 4.7861 -2.0151 -0.6125
H 4.4379 -0.9086 -1.9316
H 2.1532 0.6020 -1.7489
H -2.6151 1.9068 0.2283
H -3.2684 0.7878 1.4242
H -3.6804 -0.8990 -0.4506
H -3.1685 0.3330 -1.6196
H -2.0488 -0.8675 2.2705