33
Molecule ID: Mol_033
F -4.9280 -1.9972 -0.9031
S -4.5349 -0.7686 0.0304
O -5.0343 0.4055 -0.6545
O -4.9923 -1.1352 1.3545
O 2.0684 2.8294 0.8067
C 1.3448 1.7920 0.1425
C -0.0304 1.5611 0.8172
O -0.3124 2.1750 1.8527
N -0.9310 0.7039 0.2234
C -0.7505 -0.0575 -1.0030
C -2.1455 -0.5690 -1.3358
C -2.7753 -0.7313 0.0429
C -2.2419 0.4606 0.8112
C 2.2314 0.5658 0.1272
C 2.4453 -0.1896 1.2915
C 3.2592 -1.3232 1.2636
C 3.8789 -1.7087 0.0768
C 3.6940 -0.9562 -1.0811
C 2.8802 0.1778 -1.0559
H 1.4706 3.1577 1.5085
H 1.1508 2.1489 -0.8751
H -0.0743 -0.8914 -0.7894
H -0.3275 0.5622 -1.7977
H -2.1261 -1.5009 -1.9083
H -2.6832 0.1783 -1.9316
H -2.4306 -1.6655 0.5024
H -2.8400 1.3687 0.6753
H -2.1515 0.2641 1.8845
H 1.9872 0.1089 2.2330
H 3.4196 -1.8979 2.1724
H 4.5200 -2.5863 0.0590
H 4.1948 -1.2455 -2.0015
H 2.7643 0.7642 -1.9649