23
Molecule ID: Mol_210
F 4.7541 -0.3112 0.1779
S 3.8303 0.9570 0.4438
O 3.5500 0.9423 1.8649
O 4.5075 2.0690 -0.1894
C 2.3218 0.6517 -0.4241
C 1.7207 -0.6672 0.0122
O 0.5342 -0.9442 -0.7351
C -0.6661 -0.4858 -0.2704
C -0.8708 0.3130 0.8537
C -2.1669 0.7074 1.1977
Cl -2.4121 1.6957 2.5858
C -3.2636 0.3157 0.4334
C -3.0625 -0.4820 -0.6935
C -4.1782 -0.8939 -1.4930
N -5.0819 -1.2259 -2.1403
C -1.7661 -0.8780 -1.0412
H 1.6501 1.4932 -0.2314
H 2.5428 0.6466 -1.4961
H 1.5545 -0.7384 1.0929
H 2.4237 -1.4753 -0.2237
H -0.0514 0.6477 1.4812
H -4.2663 0.6313 0.7150
H -1.6037 -1.5011 -1.9203