22
Molecule ID: Mol_195
F -2.1398 1.1431 -0.8094
S -2.7478 -0.1306 -0.0763
O -3.5142 0.3926 1.0379
O -3.3926 -0.9064 -1.1180
C -1.3762 -1.0738 0.5693
C -0.4292 -1.5080 -0.5596
C 0.5953 -0.4167 -0.5323
C 1.5420 -0.1152 -1.4960
C 2.4244 0.9381 -1.2488
C 2.3566 1.6617 -0.0479
C 1.4055 1.3422 0.9230
C 0.5279 0.3039 0.6637
C -0.5484 -0.2344 1.5543
H -1.8370 -1.9367 1.0632
H -0.9118 -1.5886 -1.5371
H 0.0559 -2.4584 -0.3112
H 1.6030 -0.6780 -2.4224
H 3.1752 1.1992 -1.9911
H 3.0556 2.4761 0.1282
H 1.3617 1.8987 1.8542
H -0.0924 -0.8747 2.3174
H -1.1136 0.5660 2.0390