17
Molecule ID: Mol_180
F -3.2752 -0.2703 1.6535
S -2.8794 -0.3902 0.1168
O -3.4946 0.7490 -0.5317
O -3.1633 -1.7574 -0.2630
O 3.5584 0.7638 -1.2671
N 3.0776 0.4202 -0.1785
O 3.7343 0.2367 0.8560
C 1.6239 0.2167 -0.1078
C 0.8365 0.4262 -1.2506
C -0.5453 0.2323 -1.1807
C -1.1231 -0.1741 0.0272
C -0.3461 -0.3759 1.1721
C 1.0364 -0.1829 1.1038
H 1.2813 0.7398 -2.1939
H -1.1620 0.3992 -2.0629
H -0.7997 -0.6869 2.1113
H 1.6403 -0.3462 1.9954