34
Molecule ID: Mol_221
F -6.4635 0.3194 -1.8288
S -6.0503 1.1112 -0.5117
O -5.8503 2.4859 -0.9190
O -7.0232 0.7266 0.4900
O 7.4221 -0.2947 -0.0152
N 6.6714 -0.1880 0.9645
O 7.0507 -0.1657 2.1435
C 5.2275 -0.0773 0.7083
C 4.3471 0.0664 1.7851
C 2.9706 0.1748 1.5526
C 2.4733 0.1364 0.2332
N 1.1432 0.2344 -0.1329
C 1.0446 0.1274 -1.4318
N -0.2385 0.2213 -2.0852
S -1.2150 -1.1171 -1.8079
O -1.9610 -1.3071 -3.0359
O -0.4646 -2.2091 -1.2292
C -2.3547 -0.4986 -0.5933
C -2.0224 -0.5834 0.7639
C -2.9223 -0.1277 1.7294
C -4.1530 0.4033 1.3415
C -4.4742 0.4757 -0.0179
C -3.5900 0.0164 -0.9966
S 2.4970 -0.0121 -2.3079
C 3.3771 -0.0069 -0.8244
C 4.7635 -0.1159 -0.6175
H 4.7083 0.0971 2.8120
H 2.2779 0.2872 2.3823
H -0.1932 0.4185 -3.0823
H -1.0646 -0.9988 1.0742
H -2.6639 -0.1906 2.7845
H -4.8538 0.7515 2.0986
H -3.8543 0.0655 -2.0508
H 5.4386 -0.2260 -1.4623