34
Molecule ID: Mol_351
F -5.4274 2.0330 1.7805
S -5.6167 0.4578 1.8975
O -5.3004 0.1301 3.2731
O -6.9209 0.1762 1.3327
C -4.3762 -0.2706 0.8546
C -4.4315 0.2888 -0.5588
C -3.4175 -0.3753 -1.4866
N -2.0464 -0.2261 -1.0442
C -1.3861 0.9739 -1.1323
O -1.9044 2.0192 -1.5011
C 0.0165 0.9578 -0.6678
C 0.8596 -0.0467 -0.9458
C 2.2126 -0.0044 -0.5113
N 2.7789 0.9426 0.2284
C 4.0809 0.5453 0.3875
C 5.1530 1.1384 1.0652
C 6.3906 0.4763 1.0492
C 6.5514 -0.7421 0.3761
C 5.4863 -1.3449 -0.3048
C 4.2808 -0.6557 -0.2633
O 3.1006 -1.0178 -0.8359
H -4.5472 -1.3517 0.8626
H -3.4108 -0.0655 1.3277
H -4.2687 1.3723 -0.5278
H -5.4340 0.1411 -0.9781
H -3.6170 -1.4492 -1.5668
H -3.5013 0.0587 -2.4894
H -1.5773 -1.0282 -0.6448
H 0.3381 1.8593 -0.1541
H 0.5560 -0.9100 -1.5258
H 5.0245 2.0815 1.5844
H 7.2385 0.9191 1.5686
H 7.5245 -1.2304 0.3818
H 5.5910 -2.2851 -0.8310