44
Molecule ID: Mol_092
F -7.7849 -3.4270 1.7168
S -6.2668 -3.5409 1.2531
O -6.2227 -4.6249 0.2948
O -5.4896 -3.5506 2.4757
C -5.8846 -2.0511 0.3857
C -6.9179 -1.2925 -0.1610
C -6.6027 -0.1066 -0.8170
C -5.2701 0.3145 -0.9153
C -4.2346 -0.4420 -0.3583
N -2.8723 -0.0800 -0.4127
C -2.3188 1.0515 -1.0069
O -2.9410 1.9336 -1.5893
C -0.7919 1.0790 -0.8500
O -0.2178 2.2266 -1.4584
C 1.1427 2.3553 -1.3838
C 1.6524 3.4979 -2.0008
C 3.0222 3.7487 -1.9973
C 3.8903 2.8522 -1.3732
C 3.3968 1.6996 -0.7481
N 4.3445 0.8457 -0.1400
C 4.1123 -0.3445 0.5404
O 2.9980 -0.8321 0.7115
C 5.3215 -0.9840 1.0481
C 6.6718 -0.6718 0.9935
C 7.3644 -1.6982 1.6842
C 6.4052 -2.5773 2.1211
O 5.1730 -2.1582 1.7441
C 2.0184 1.4605 -0.7594
C -4.5509 -1.6349 0.2999
H -7.9547 -1.6115 -0.0899
H -7.3897 0.5017 -1.2581
H -5.0773 1.2475 -1.4374
H -2.2247 -0.7194 0.0339
H -0.4024 0.1693 -1.3237
H -0.5784 1.0792 0.2262
H 0.9739 4.1956 -2.4867
H 3.4104 4.6415 -2.4804
H 4.9547 3.0717 -1.3848
H 5.3046 1.1475 -0.2121
H 7.1222 0.1868 0.5172
H 8.4301 -1.7867 1.8439
H 6.4323 -3.5008 2.6833
H 1.6234 0.5753 -0.2812
H -3.7717 -2.2460 0.7507