29
Molecule ID: Mol_012
F 5.0238 -0.8177 2.6622
S 5.2486 -0.2937 1.1814
O 6.2147 -1.1739 0.5616
O 5.3912 1.1422 1.2556
C 3.7583 -0.5708 0.3116
C 2.4955 -0.0128 0.3315
C 1.7325 -0.7242 -0.6384
N 2.4967 -1.6725 -1.2128
N 3.7006 -1.5415 -0.6420
C 0.3133 -0.5384 -1.0187
O -0.3227 -1.3718 -1.6585
N -0.2510 0.6550 -0.5974
C -1.6265 1.0015 -0.8876
C -2.3698 0.9917 0.4430
C -2.7105 -0.3912 1.0641
C -4.0830 -0.3050 0.3704
C -3.9000 1.2242 0.3334
H 2.1755 0.7940 0.9756
H 4.4551 -2.1542 -0.9444
H 0.3266 1.3517 -0.1522
H -1.6231 2.0076 -1.3188
H -2.0648 0.3120 -1.6153
H -1.8984 1.6796 1.1581
H -2.7730 -0.3723 2.1587
H -2.0858 -1.2364 0.7651
H -4.9330 -0.6672 0.9540
H -4.1078 -0.7721 -0.6205
H -4.3270 1.7356 1.2043
H -4.2559 1.7205 -0.5735