32
Molecule ID: Mol_339
F 5.9481 -0.8512 -2.1106
S 5.9896 -1.0307 -0.5278
O 6.4871 -2.3740 -0.3148
O 6.6925 0.1349 -0.0340
C -5.5130 0.0456 0.1319
N -4.0759 -0.2166 0.2363
C -3.6531 -1.0970 -0.8533
C -3.3307 1.0539 0.2497
C -1.9253 0.8963 0.7125
C -0.7211 0.6823 0.0852
C 0.2405 0.6539 1.1345
N -0.3658 0.8531 2.3169
O -1.7109 1.0004 2.0498
C 1.6940 0.4457 1.0653
O 2.4098 0.3146 2.0552
N 2.2342 0.4080 -0.2150
C 3.6750 0.3622 -0.4169
C 4.2961 -0.9596 -0.0036
H -6.0801 -0.8916 0.1633
H -5.8595 0.6454 0.9811
H -5.7699 0.5744 -0.7932
H -3.7796 -0.6285 -1.8361
H -4.2325 -2.0275 -0.8416
H -2.6054 -1.3935 -0.7428
H -3.3473 1.5289 -0.7399
H -3.8182 1.7590 0.9367
H -0.5726 0.5505 -0.9746
H 1.6607 0.7260 -0.9835
H 4.1237 1.1935 0.1389
H 3.8430 0.5501 -1.4831
H 3.7788 -1.8058 -0.4669
H 4.2876 -1.1029 1.0803