17
Molecule ID: Mol_043
F -2.8126 -1.8224 -0.4390
S -2.7734 -0.3534 0.1728
O -3.5396 0.4646 -0.7450
O -3.1256 -0.4967 1.5697
C -1.0918 0.1817 0.1014
C -0.8071 1.5500 0.0907
C 0.5197 1.9687 0.0072
C 1.5464 1.0234 -0.0711
C 1.2508 -0.3440 -0.0684
C 2.3075 -1.3044 -0.1525
C 3.1940 -2.1112 -0.2229
C -0.0747 -0.7721 0.0147
H -1.6070 2.2860 0.1447
H 0.7577 3.0301 0.0006
H 2.5792 1.3606 -0.1360
H 3.9816 -2.8260 -0.2846
H -0.3053 -1.8349 0.0178