23
Molecule ID: Mol_054
F -1.2603 -2.8738 -0.0688
S -2.1870 -1.8407 0.7058
O -1.9933 -2.0938 2.1202
O -3.4937 -1.9879 0.0893
C 2.7974 -1.9537 -0.2597
C 1.8755 -0.7714 -0.2518
C 2.3540 0.4903 -0.5340
C 1.4544 1.5492 -0.5101
Cl 2.0918 3.1205 -0.8712
C 0.0903 1.3454 -0.2053
C -0.8751 2.3856 -0.1632
C -2.2086 2.1289 0.1438
C -2.5998 0.8290 0.4152
C -1.6449 -0.1979 0.3782
C -0.3067 0.0198 0.0696
N 0.5756 -0.9993 0.0410
H 3.5898 -1.8204 0.4834
H 3.2483 -2.0753 -1.2495
H 2.2539 -2.8727 -0.0175
H 3.4019 0.6484 -0.7666
H -0.5909 3.4160 -0.3719
H -2.9326 2.9403 0.1691
H -3.6400 0.6136 0.6540