35
Molecule ID: Mol_260
F 5.5736 2.4129 -2.7657
S 6.2062 1.3151 -1.8067
O 7.1524 2.0067 -0.9584
O 6.5627 0.1885 -2.6412
C -4.6129 1.6451 0.7485
C -3.7773 1.4607 -0.5044
C -3.5834 -0.0105 -0.8121
O -4.4051 -0.6173 -1.4994
N -2.4795 -0.6358 -0.2762
C -2.2765 -2.0621 -0.4522
C -0.8269 -2.2896 -0.0584
C -0.5909 -1.2288 1.0190
C -1.4572 -0.0516 0.5798
C 0.8626 -0.8338 1.2243
O 1.3428 -0.8852 2.3528
N 1.5104 -0.4152 0.0837
C 2.8207 -0.0237 0.0875
N 3.6685 0.0474 1.0791
C 4.8896 0.4869 0.6065
C 4.9376 0.7516 -0.7438
S 3.4078 0.4426 -1.4477
H -5.5958 1.1760 0.6336
H -4.7645 2.7095 0.9519
H -4.1340 1.1942 1.6227
H -2.8148 1.9704 -0.4062
H -4.2813 1.9201 -1.3626
H -2.4914 -2.3717 -1.4794
H -2.9606 -2.5839 0.2265
H -0.6540 -3.3054 0.3107
H -0.1803 -2.1461 -0.9306
H -0.9752 -1.6167 1.9725
H -1.9218 0.4459 1.4361
H -0.9144 0.7016 -0.0003
H 1.0444 -0.3977 -0.8108
H 5.7183 0.6000 1.2967