29
Molecule ID: Mol_485
F 5.7886 -1.4320 -0.9122
S 5.3922 -0.0621 -0.2067
O 5.9595 -0.1319 1.1230
O 5.7217 0.9840 -1.1501
C -3.1846 -1.2982 0.0119
N -3.4983 0.1071 0.2174
C -4.7582 0.3891 0.8853
C -2.5505 1.1270 0.1479
O -2.8108 2.2882 0.4758
C -1.1602 0.7908 -0.3998
O -0.4966 -0.1590 0.4377
C 0.8633 -0.1111 0.2563
C 1.4828 -0.9218 -0.7057
Cl 0.5715 -1.9832 -1.7170
C 2.8701 -0.9009 -0.8607
C 3.6328 -0.0711 -0.0375
C 3.0378 0.7171 0.9498
C 1.6512 0.6888 1.0978
Cl 0.9438 1.6530 2.3419
H -2.4282 -1.4287 -0.7631
H -4.0867 -1.8314 -0.3026
H -2.8197 -1.7179 0.9537
H -4.6918 0.0370 1.9191
H -5.5657 -0.1375 0.3683
H -4.9873 1.4581 0.8894
H -1.2706 0.3999 -1.4175
H -0.5985 1.7328 -0.4609
H 3.3445 -1.5266 -1.6138
H 3.6477 1.3401 1.6021