41
Molecule ID: Mol_065
F 2.9357 7.2911 -0.8025
S 1.4064 6.8669 -0.6667
O 0.9231 7.5582 0.5114
O 0.8237 7.0607 -1.9783
C -2.4053 -4.3289 -0.7237
C -1.5865 -4.2735 0.5716
C -0.8396 -5.6062 0.7375
C -2.4740 -4.0529 1.8029
O -0.5390 -3.2719 0.4913
C -0.8455 -1.9650 0.3422
O -1.9641 -1.4880 0.2478
N 0.3121 -1.2497 0.2960
C 0.3278 0.1388 -0.1629
C 1.4350 0.9214 0.5525
C 1.4283 2.4030 0.2517
C 0.4126 3.2250 0.7649
C 0.3945 4.5901 0.4777
C 1.3962 5.1317 -0.3294
C 2.4225 4.3336 -0.8387
C 2.4325 2.9682 -0.5500
C 0.5932 0.1122 -1.6658
O 1.3915 -0.6164 -2.2378
O -0.1353 1.0096 -2.3573
H -3.0793 -5.1921 -0.7326
H -3.0198 -3.4334 -0.8583
H -1.7458 -4.3918 -1.5969
H -1.5300 -6.4527 0.8138
H -0.2107 -5.5908 1.6359
H -0.1661 -5.7836 -0.1091
H -1.8630 -3.9266 2.7048
H -3.0864 -3.1503 1.7092
H -3.1566 -4.8958 1.9587
H 1.1316 -1.8208 0.1304
H -0.6584 0.5817 0.0172
H 1.3341 0.7957 1.6393
H 2.4179 0.4987 0.3025
H -0.3722 2.8061 1.3936
H -0.3956 5.2184 0.8846
H 3.2063 4.7578 -1.4621
H 3.2295 2.3468 -0.9564
H 0.1184 0.8750 -3.2938