27
Molecule ID: Mol_041
F 5.3298 0.1468 1.8615
S 4.9391 0.0106 0.3224
O 5.4021 -1.3169 -0.0381
O 5.4630 1.2015 -0.3201
O -4.3641 0.7537 0.6096
C -3.2629 -0.1323 0.4787
C -3.1133 -0.6174 -0.9557
C -1.6555 -1.0507 -1.0212
N -0.9689 -0.0846 -0.1630
C -1.9095 0.5375 0.7765
C 0.3979 -0.0317 -0.0163
C 1.2792 -0.8482 -0.7347
N 2.6314 -0.8330 -0.6378
C 3.1647 0.0673 0.2309
C 2.4124 0.9414 0.9920
Br 3.1180 2.2351 2.1774
C 1.0189 0.8797 0.8522
H -4.2503 1.4789 -0.0296
H -3.4178 -0.9824 1.1531
H -3.8054 -1.4296 -1.1976
H -3.3077 0.1977 -1.6640
H -1.2963 -1.0209 -2.0552
H -1.5360 -2.0651 -0.6230
H -1.6338 0.3522 1.8212
H -1.9561 1.6203 0.6134
H 0.9112 -1.5836 -1.4453
H 0.4099 1.5733 1.4271