40
Molecule ID: Mol_066
F 7.4259 0.7686 -0.6450
S 6.2866 0.5037 -1.7317
O 6.6312 -0.7805 -2.3090
O 6.2379 1.7269 -2.5081
C -3.5676 1.3111 -0.5396
C -3.3468 -0.2091 -0.5011
C -2.6561 -0.6551 -1.7996
C -4.7272 -0.8996 -0.4433
C -2.5516 -0.6395 0.7642
C -1.2329 0.0827 1.0759
C -0.6679 -0.3501 2.4355
C 0.7901 0.0904 2.3661
N 1.1240 -0.0964 0.9675
C -0.0642 -0.2144 0.1243
C 2.3606 0.0614 0.3999
C 3.5026 0.3062 1.1613
C 4.7478 0.4521 0.5496
C 4.7900 0.3421 -0.8217
N 3.7050 0.1046 -1.5777
N 2.4901 -0.0368 -0.9472
H -4.2331 1.5921 -1.3640
H -4.0228 1.6679 0.3909
H -2.6275 1.8530 -0.6866
H -3.3124 -0.5043 -2.6650
H -2.3952 -1.7185 -1.7656
H -1.7448 -0.0862 -1.9979
H -5.3391 -0.6418 -1.3153
H -5.2847 -0.5981 0.4508
H -4.6224 -1.9903 -0.4211
H -3.2061 -0.4958 1.6360
H -2.3647 -1.7212 0.7143
H -1.3962 1.1670 1.1172
H -1.1970 0.1067 3.2774
H -0.7232 -1.4403 2.5483
H 1.4062 -0.5204 3.0340
H 0.8885 1.1457 2.6454
H -0.0553 0.5150 -0.6926
H -0.1241 -1.2275 -0.2890
H 3.4400 0.3860 2.2412
H 5.6363 0.6427 1.1398