21
Molecule ID: Mol_132
F -3.7069 0.8790 0.0218
S -2.3232 0.4919 0.7149
O -2.5275 -0.8556 1.2100
O -2.0426 1.6008 1.6058
C -1.5864 -0.4219 -1.7680
C -1.1265 0.4841 -0.6304
C 0.2391 0.1338 -0.0700
C 0.5885 -1.1805 0.2821
C 1.8548 -1.4713 0.7959
C 2.7926 -0.4553 0.9663
C 2.4574 0.8514 0.6255
Br 3.7247 2.2352 0.8581
C 1.1933 1.1502 0.1132
H -1.7393 -1.4557 -1.4413
H -0.8535 -0.4302 -2.5819
H -2.5403 -0.0703 -2.1760
H -1.1135 1.5153 -1.0053
H -0.1239 -1.9980 0.1781
H 2.1068 -2.4933 1.0700
H 3.7740 -0.6912 1.3692
H 0.9523 2.1816 -0.1378