16
Molecule ID: Mol_199
F -2.9460 -1.5358 -1.1353
S -2.6649 -0.2016 -0.3156
O -3.0556 0.8831 -1.1914
O -3.2512 -0.4045 0.9916
O 3.2010 0.1669 0.3680
C 1.8417 0.0912 0.2175
C 1.2585 -1.1274 -0.1486
Br 2.3078 -2.6798 -0.4433
C -0.1250 -1.2272 -0.3083
C -0.9152 -0.0966 -0.0921
C -0.3496 1.1298 0.2671
C 1.0329 1.2156 0.4231
Br 1.7937 2.8807 0.9147
H 3.4304 1.0788 0.6244
H -0.5764 -2.1753 -0.5921
H -0.9823 2.0022 0.4202