33
Molecule ID: Mol_278
F -6.4946 -0.5267 2.4994
S -5.8770 0.4884 1.4416
O -6.7385 0.4290 0.2804
O -5.6329 1.7121 2.1755
C 5.9001 2.1873 -0.3880
C 4.5675 2.1535 0.3421
C 3.5526 1.3383 -0.3885
N 2.6772 1.8251 -1.2451
N 1.8520 0.8473 -1.7599
C 2.1317 -0.3481 -1.2739
C 1.3876 -1.5962 -1.6247
N -0.0122 -1.4073 -1.2920
C -0.4898 -1.7610 -0.0512
O 0.1388 -2.4143 0.7697
C -1.8335 -1.2413 0.2757
C -2.0278 0.1503 0.2610
C -3.2698 0.6852 0.6064
C -4.3090 -0.1777 0.9624
C -4.1244 -1.5626 0.9892
C -2.8801 -2.0969 0.6414
Cl -2.7241 -3.8152 0.6379
S 3.4329 -0.3615 -0.1527
H 5.7870 2.5846 -1.4037
H 6.6098 2.8237 0.1510
H 6.3369 1.1857 -0.4692
H 4.7092 1.7707 1.3589
H 4.1921 3.1775 0.4442
H 1.4450 -1.7673 -2.7043
H 1.7828 -2.4791 -1.1115
H -0.5262 -0.7424 -1.8561
H -1.2068 0.8201 0.0077
H -3.4148 1.7645 0.6080
H -4.9418 -2.2240 1.2686