29
Molecule ID: Mol_466
F -3.7249 3.1957 0.3042
S -3.9690 1.6334 0.4858
O -3.9067 1.3972 1.9134
O -5.1373 1.3174 -0.3081
C -2.5861 0.8181 -0.2615
C -2.1701 -0.4229 0.2319
C -1.0630 -1.0501 -0.3399
C -0.3737 -0.4187 -1.3826
C -0.8022 0.8173 -1.8837
C -1.9093 1.4462 -1.3118
S 1.0391 -1.2180 -2.1177
O 0.9590 -2.6295 -1.8123
O 1.1406 -0.7454 -3.4815
N 2.3457 -0.5404 -1.2861
C 2.3616 -0.6068 0.1460
C 2.4783 -1.8410 0.7825
C 2.4484 -1.9047 2.1736
C 2.3009 -0.7256 2.8852
N 2.1878 0.4891 2.3072
C 2.2244 0.5290 0.9543
Br 2.0754 2.2560 0.1639
H -2.7017 -0.9020 1.0525
H -0.7434 -2.0219 0.0325
H -0.2817 1.2926 -2.7134
H -2.2406 2.4090 -1.6956
H 2.6372 0.3434 -1.7071
H 2.6000 -2.7557 0.2068
H 2.5397 -2.8551 2.6896
H 2.2715 -0.7271 3.9721