41
Molecule ID: Mol_048
F -3.4294 -0.9120 2.7466
S -3.6582 -1.9162 1.5339
O -4.7596 -2.7606 1.9512
O -2.3550 -2.4744 1.2386
C -4.2143 -0.9304 0.1622
C -3.2099 0.0596 -0.4396
C -2.7254 1.1289 0.5485
C -1.6185 1.9720 -0.0771
N -0.4721 1.1632 -0.4728
C -0.6692 -0.2805 -0.6204
C -2.0456 -0.6109 -1.1978
C 0.7396 1.8245 -0.6754
O 0.8411 3.0504 -0.6904
C 1.9613 1.0346 -0.9324
C 2.6034 1.2175 -2.1650
C 3.7706 0.5112 -2.4544
C 4.2959 -0.3753 -1.5142
C 3.6618 -0.5489 -0.2824
O 4.2460 -1.4479 0.5750
C 3.3741 -1.7884 1.6582
C 2.7279 -0.5403 2.2310
O 1.8863 0.0774 1.2526
C 2.5060 0.1778 0.0315
H -5.1019 -0.3955 0.5190
H -4.5484 -1.6373 -0.6060
H -3.7832 0.5978 -1.2101
H -2.3346 0.6702 1.4622
H -3.5628 1.7715 0.8436
H -1.9849 2.4842 -0.9749
H -1.2909 2.7426 0.6302
H 0.1001 -0.7086 -1.2694
H -0.5530 -0.7265 0.3725
H -2.0683 -0.2501 -2.2356
H -2.1754 -1.6965 -1.2626
H 2.1950 1.9164 -2.8919
H 4.2710 0.6525 -3.4091
H 5.2018 -0.9326 -1.7394
H 2.6227 -2.4985 1.2911
H 3.9747 -2.2905 2.4230
H 2.1027 -0.7974 3.0917
H 3.4786 0.1896 2.5585