38
Molecule ID: Mol_068
F 5.4047 0.4518 2.8658
S 5.7266 0.9955 1.4053
O 5.9249 2.4252 1.5495
O 6.7762 0.1319 0.8962
C 4.2978 0.7446 0.4135
C 4.3435 0.7902 -0.9627
C 3.1531 0.5449 -1.6404
C 1.9891 0.2705 -0.9246
N 0.8200 -0.0082 -1.6457
C -0.3926 -0.2678 -0.8559
C -1.0091 1.0530 -0.3351
C -2.0962 0.8397 0.6926
C -3.4472 0.9767 0.3478
C -4.4440 0.7626 1.3010
C -4.1003 0.4109 2.6050
C -2.7594 0.2731 2.9583
C -1.7610 0.4862 2.0073
C -1.3528 -0.9829 -1.7874
C -2.2803 -2.0554 -1.2681
C -1.1204 -2.4321 -2.1452
N 2.0273 0.2151 0.4285
N 3.1857 0.4597 1.1178
H 5.2646 0.9970 -1.4958
H 3.1376 0.5512 -2.7262
H 0.6675 0.6809 -2.3745
H -0.1585 -0.9412 -0.0203
H -0.2409 1.6890 0.1229
H -1.4031 1.6426 -1.1740
H -3.7335 1.2461 -0.6660
H -5.4900 0.8697 1.0260
H -4.8772 0.2448 3.3465
H -2.4897 -0.0002 3.9751
H -0.7172 0.3752 2.2971
H -1.7252 -0.3381 -2.5758
H -3.2778 -2.1096 -1.6890
H -2.2319 -2.3227 -0.2180
H -0.2814 -2.9461 -1.6890
H -1.3286 -2.7420 -3.1625