27
Molecule ID: Mol_080
F 5.4547 -0.2751 -0.4237
S 4.5298 0.1529 0.7981
O 4.8114 1.5551 1.0225
O 4.7256 -0.8554 1.8173
O -3.9998 1.3917 0.7091
C -2.8075 0.6337 0.5862
C -3.1229 -0.7852 0.1489
C -1.7797 -1.2799 -0.3766
N -1.1134 -0.0826 -0.9414
C -1.9007 1.1043 -0.5547
C 0.2427 -0.0445 -0.5609
N 0.6018 0.7541 0.4794
C 1.9017 0.7800 0.8603
C 2.8758 0.0211 0.2481
C 2.5363 -0.7981 -0.8194
C 1.2026 -0.8365 -1.2269
Cl 0.8047 -1.8528 -2.5675
H -3.7426 2.2944 0.9656
H -2.2753 0.6340 1.5447
H -3.5096 -1.4022 0.9657
H -3.8796 -0.7881 -0.6459
H -1.2105 -1.7236 0.4516
H -1.9222 -2.0455 -1.1461
H -2.5122 1.4062 -1.4151
H -1.3205 1.9928 -0.2806
H 2.1244 1.4479 1.6895
H 3.2850 -1.3986 -1.3284