23
Molecule ID: Mol_027
F 3.3558 -1.5893 0.3513
S 3.2802 -0.1181 -0.2520
O 4.2133 0.6574 0.5413
O 3.4299 -0.2657 -1.6851
C -3.3078 -0.1506 0.1736
C -1.9129 -0.6131 -0.1477
N -1.8412 -1.8460 -0.7063
C -0.6254 -2.3124 -1.0277
C 0.5459 -1.6107 -0.8072
C 0.4990 -0.3299 -0.2139
C 1.6366 0.4787 0.0636
C 1.5194 1.7552 0.6310
C 0.2651 2.2550 0.9428
C -0.8664 1.4809 0.6930
C -0.7783 0.1902 0.1176
H -3.5482 0.7585 -0.3863
H -3.4112 0.0377 1.2467
H -4.0436 -0.9140 -0.1015
H -0.6113 -3.2974 -1.4863
H 1.4725 -2.0796 -1.1221
H 2.3993 2.3627 0.8369
H 0.1632 3.2441 1.3840
H -1.8339 1.9062 0.9543