21
Molecule ID: Mol_345
F 3.2502 2.3037 0.0749
S 3.5116 0.7926 0.4993
O 4.4472 0.2731 -0.4769
O 3.7987 0.8216 1.9178
C -3.9734 0.6600 -0.4344
O -2.7362 -0.0431 -0.3067
C -1.6582 0.7637 -0.1545
O -1.6724 1.9840 -0.1225
C -0.4101 -0.0369 -0.0261
C -0.4049 -1.4392 -0.0890
C 0.7937 -2.1496 0.0319
C 1.9944 -1.4669 0.2184
C 1.9843 -0.0716 0.2884
C 0.7962 0.6513 0.1612
H -3.9608 1.2994 -1.3227
H -4.7717 -0.0782 -0.5503
H -4.1741 1.2493 0.4658
H -1.3294 -1.9944 -0.2347
H 0.7881 -3.2365 -0.0219
H 2.9271 -2.0214 0.3067
H 0.7998 1.7390 0.2115