28
Molecule ID: Mol_478
F -4.6558 2.4216 0.6262
S -4.4491 0.8853 0.9881
O -5.5826 0.1892 0.4171
O -4.1494 0.8612 2.4052
C -3.0028 0.3482 0.1231
C -2.3698 -0.8330 0.5249
C -1.2121 -1.2463 -0.1345
C -0.6951 -0.4656 -1.1748
C -1.3367 0.7126 -1.5793
C -2.4956 1.1273 -0.9216
S 0.7706 -0.9915 -2.0358
O 1.1534 -2.3067 -1.5689
O 0.5124 -0.7648 -3.4444
N 1.9125 0.1300 -1.5936
C 2.5346 -0.0485 -0.3643
N 1.7865 -0.2991 0.7115
C 2.4443 -0.3056 1.8853
C 3.7866 -0.0292 2.0035
C 4.4359 0.2710 0.8283
N 3.8273 0.2906 -0.3723
H -2.7687 -1.4274 1.3446
H -0.7114 -2.1626 0.1725
H -0.9364 1.3031 -2.4013
H -2.9911 2.0440 -1.2327
H 2.5634 0.3584 -2.3360
H 1.8396 -0.5409 2.7567
H 4.2952 -0.0380 2.9576
H 5.4941 0.5170 0.8181