18
Molecule ID: Mol_435
F -1.8385 2.0994 -1.1645
S -0.7328 2.3795 -0.0573
O -1.4421 2.5824 1.1893
O 0.1097 3.4142 -0.6274
C -2.1040 -1.7430 -0.4879
O -1.6362 -0.4015 -0.3660
C -0.2962 -0.3031 -0.0709
N 0.4324 -1.4401 0.0231
C 1.7464 -1.3187 0.3178
Br 2.7658 -2.9109 0.4523
C 2.3769 -0.0997 0.5204
C 1.6146 1.0599 0.4155
C 0.2548 0.9474 0.1203
H -3.1756 -1.7024 -0.7059
H -1.6137 -2.2588 -1.3207
H -1.9751 -2.2946 0.4497
H 3.4359 -0.0440 0.7516
H 2.0777 2.0337 0.5607