16
Molecule ID: Mol_447
F 2.7520 -0.8477 1.3759
S 2.3104 -0.3688 -0.0744
O 2.8960 0.9476 -0.2484
O 2.5997 -1.4669 -0.9710
O 0.6348 2.2185 -0.5417
C -0.0516 1.0687 -0.2581
C -1.4518 1.1459 -0.2011
Cl -2.2820 2.6358 -0.4816
C -2.2204 0.0158 0.0897
C -1.5911 -1.2025 0.3247
Cl -2.5321 -2.5956 0.6842
C -0.2042 -1.3034 0.2724
C 0.5602 -0.1651 -0.0204
H 1.6081 2.0937 -0.5290
H -3.3045 0.0888 0.1312
H 0.2763 -2.2648 0.4476