18
Molecule ID: Mol_440
F -3.7376 0.2038 1.2889
S -3.1526 -0.2592 -0.1152
O -3.4401 -1.6790 -0.1836
O -3.6617 0.6689 -1.1030
O 3.5266 -0.7820 -0.4166
C 2.8715 0.2698 0.1023
O 3.4648 1.2227 0.5707
C 1.3978 0.1197 0.0317
C 0.7921 -1.0156 -0.5163
C -0.6007 -1.1107 -0.5596
C -1.3945 -0.0680 -0.0560
C -0.7972 1.0684 0.4930
Br -1.7615 2.5491 1.1827
C 0.6007 1.1577 0.5340
H 4.4739 -0.5519 -0.3078
H 1.3939 -1.8319 -0.9117
H -1.0566 -2.0026 -0.9889
H 1.0811 2.0409 0.9554