25
Molecule ID: Mol_208
F 5.0151 0.3053 1.4228
S 4.5930 -0.0722 -0.0650
O 5.0829 1.0042 -0.9002
O 5.0084 -1.4487 -0.2430
C 2.8270 -0.0250 -0.1168
C 2.1468 -0.7896 -1.0647
C 0.7499 -0.7713 -1.0823
C 0.0217 -0.0000 -0.1581
C 0.7369 0.7540 0.7907
C 2.1341 0.7421 0.8193
C -1.4502 0.0160 -0.1813
C -2.1596 1.2256 -0.2689
C -3.5569 1.2416 -0.2910
C -4.2690 0.0469 -0.2247
C -3.5855 -1.1632 -0.1372
C -2.1882 -1.1777 -0.1163
H 2.6896 -1.3961 -1.7867
H 0.2250 -1.3594 -1.8339
H 0.1990 1.3502 1.5267
H 2.6606 1.3322 1.5655
H -1.6238 2.1705 -0.3340
H -4.0873 2.1876 -0.3634
H -5.3556 0.0587 -0.2419
H -4.1384 -2.0974 -0.0828
H -1.6755 -2.1343 -0.0368