32
Molecule ID: Mol_073
F 3.3409 2.0442 1.8256
S 3.9154 0.5653 1.6917
O 3.7453 -0.0423 2.9986
O 5.2279 0.7149 1.0894
C 2.8863 -0.3082 0.5437
C 3.2821 -1.5324 0.0480
C 2.4248 -2.1297 -0.8562
C 1.2364 -1.4785 -1.2133
C 0.8996 -0.2342 -0.6685
N 1.7444 0.3477 0.2098
N -0.2587 0.4535 -1.0051
C -1.3461 -0.1494 -1.7667
C -2.3561 -0.8478 -0.8549
C -3.2642 0.1455 -0.1304
C -2.6938 0.7827 1.1366
C -1.2129 1.1674 1.1624
C -0.6179 1.6119 -0.1746
H 4.2137 -1.9986 0.3472
H 2.6676 -3.0951 -1.2926
H 0.5938 -1.9799 -1.9265
H -0.9817 -0.8466 -2.5270
H -1.8516 0.6337 -2.3473
H -1.8628 -1.5171 -0.1409
H -2.9929 -1.4756 -1.4908
H -3.5711 0.9379 -0.8249
H -4.1909 -0.3718 0.1501
H -3.2901 1.6793 1.3515
H -2.8765 0.1066 1.9822
H -1.0970 1.9858 1.8845
H -0.6433 0.3269 1.5771
H -1.3289 2.2547 -0.7092
H 0.2585 2.2490 -0.0005