43
Molecule ID: Mol_085
F 4.4035 1.7072 -2.8031
S 5.3753 1.3998 -1.5839
O 5.8322 0.0393 -1.7700
O 6.2851 2.5232 -1.5201
C 4.3872 1.4224 -0.1181
C 5.0169 1.5113 1.1276
C 4.2439 1.5459 2.2892
C 2.8518 1.4905 2.2033
C 2.2378 1.3925 0.9486
C 2.9965 1.3692 -0.2254
S 0.4615 1.3190 0.8563
O -0.0381 2.2812 1.8156
O 0.0890 1.3799 -0.5416
N 0.1418 -0.2305 1.4739
C 0.2537 -1.3163 0.5394
C 1.5086 -1.8988 0.3397
C 1.6707 -2.8947 -0.6208
C 0.5812 -3.3059 -1.3844
C -0.6762 -2.7260 -1.1890
C -0.8578 -1.7195 -0.2293
C -2.1745 -1.1112 -0.0070
N -2.6041 -0.6069 1.1388
C -3.8645 -0.1202 0.8866
C -4.7714 0.5111 1.7474
C -6.0078 0.9226 1.2338
C -6.3339 0.7082 -0.1075
C -5.4406 0.0805 -0.9818
C -4.2171 -0.3191 -0.4423
N -3.1228 -0.9344 -0.9899
H 6.1024 1.5638 1.1973
H 4.7256 1.6207 3.2623
H 2.2499 1.5222 3.1103
H 2.5123 1.3067 -1.1963
H -0.7906 -0.1928 1.9171
H 2.3608 -1.5939 0.9398
H 2.6464 -3.3526 -0.7694
H 0.7086 -4.0885 -2.1279
H -1.5094 -3.0855 -1.7844
H -4.5096 0.6777 2.7873
H -6.7169 1.4199 1.8909
H -7.2995 1.0419 -0.4804
H -5.6911 -0.0774 -2.0249
H -3.0170 -1.1825 -1.9628