33
Molecule ID: Mol_310
F 3.7746 1.3896 2.8900
S 3.7162 1.2572 1.3045
O 3.0128 2.4387 0.8486
O 5.0638 0.9377 0.8842
O -1.1785 1.0211 0.9427
C -1.9993 1.1823 -0.2186
C -3.0184 0.0523 -0.2658
C -2.1786 -1.1320 -0.7329
N -1.2124 -0.5502 -1.6879
C -1.1666 0.9266 -1.4875
S 0.2201 -1.3777 -2.0005
O 0.9629 -0.6285 -2.9912
O -0.1150 -2.7706 -2.2114
C 1.1337 -1.2805 -0.4718
C 1.0511 -2.3292 0.4536
C 1.7787 -2.2676 1.6444
C 2.5991 -1.1696 1.9057
C 2.7023 -0.1489 0.9557
C 1.9825 -0.1955 -0.2399
C -2.6202 2.5123 -0.2008
C -3.1241 3.6025 -0.1792
H -1.6561 1.4308 1.6857
H -3.8116 0.2589 -0.9957
H -3.4842 -0.1541 0.7035
H -1.6732 -1.5885 0.1223
H -2.7999 -1.8866 -1.2232
H -0.1481 1.3057 -1.3793
H -1.6162 1.3908 -2.3736
H 0.4232 -3.1957 0.2536
H 1.7074 -3.0794 2.3654
H 3.1607 -1.1277 2.8364
H 2.0792 0.6029 -0.9731
H -3.5660 4.5729 -0.1639