19
Molecule ID: Mol_422
F 3.7461 -0.3127 -1.5140
S 2.8574 -1.1274 -0.4782
O 3.6016 -1.1716 0.7627
O 2.4786 -2.3341 -1.1868
O -3.3738 -0.2565 0.4393
C -2.2755 -1.0105 0.2345
O -2.3508 -2.2205 0.1462
C -1.0313 -0.2077 0.1373
C 0.1672 -0.9023 -0.0803
C 1.3832 -0.2044 -0.1778
C 1.4148 1.1837 -0.0637
Cl 2.8598 2.1183 -0.1507
C 0.2191 1.8757 0.1511
C -0.9921 1.1871 0.2500
O -2.0980 1.9636 0.4598
H -4.0971 -0.9241 0.4805
H 0.1515 -1.9894 -0.1726
H 0.2192 2.9602 0.2476
H -2.8800 1.3728 0.5151