31
Molecule ID: Mol_009
F 6.0459 1.7910 1.4438
S 5.8171 0.2862 0.9966
O 6.5123 0.0994 -0.2554
O 6.0265 -0.5425 2.1647
C -3.8636 -1.5081 -1.2163
C -2.4360 -1.5570 -0.6979
C -1.7019 -0.2049 -0.7235
C -2.3466 0.8615 0.1851
C -3.2671 1.8087 -0.5740
N -0.3195 -0.4250 -0.3199
C 0.7156 0.3978 -0.7086
O 0.6050 1.3054 -1.5258
C 1.9852 0.0939 -0.0274
C 3.2371 0.7256 -0.2379
C 4.1183 0.1102 0.6261
N 3.3784 -0.8296 1.2821
N 2.0821 -0.8591 0.9239
H -4.2698 -2.5222 -1.2907
H -4.5140 -0.9452 -0.5410
H -3.9076 -1.0531 -2.2106
H -1.8742 -2.2746 -1.3104
H -2.4374 -1.9653 0.3209
H -1.6746 0.1635 -1.7568
H -1.5722 1.4773 0.6602
H -2.8995 0.3865 1.0042
H -3.6916 2.5488 0.1119
H -2.7141 2.3488 -1.3494
H -4.0960 1.2813 -1.0515
H -0.1013 -1.0462 0.4555
H 3.4560 1.5222 -0.9370
H 3.7076 -1.4753 1.9967