43
Molecule ID: Mol_094
F 7.8312 1.6166 0.7220
S 6.8050 0.6988 -0.0776
O 6.4355 1.4721 -1.2453
O 7.4304 -0.6038 -0.1738
C -4.8608 -2.1816 -0.2226
C -4.3819 -0.9250 -0.9655
C -5.2962 0.2462 -0.5868
C -4.4058 -1.2090 -2.4714
O -3.0299 -0.7098 -0.4851
C -2.2827 0.3281 -0.9401
O -2.6535 1.1383 -1.7794
N -1.0381 0.3643 -0.3447
C -0.6185 -0.5778 0.6921
C 0.5546 -0.0573 1.5425
N 1.6949 0.3574 0.7047
C 1.3873 0.8765 -0.6444
C -0.0656 1.3715 -0.7570
C 2.9816 0.4107 1.2153
C 3.2721 0.3810 2.5882
N 4.5128 0.4303 3.1490
C 5.5551 0.5093 2.3008
C 5.3895 0.5356 0.9347
C 4.1053 0.4911 0.3859
H -4.1996 -3.0311 -0.4284
H -5.8809 -2.4595 -0.5078
H -4.8356 -2.0270 0.8622
H -5.0492 1.1545 -1.1450
H -5.1902 0.4926 0.4774
H -6.3480 0.0149 -0.7873
H -3.6810 -1.9895 -2.7339
H -4.1417 -0.3250 -3.0590
H -5.3997 -1.5337 -2.7996
H -1.4666 -0.8155 1.3429
H -0.3249 -1.5010 0.1776
H 0.2233 0.8002 2.1407
H 0.8448 -0.8616 2.2287
H 2.0404 1.7197 -0.9003
H 1.5595 0.0758 -1.3739
H -0.2686 1.6986 -1.7822
H -0.2147 2.2375 -0.1003
H 2.4787 0.3374 3.3282
H 6.5329 0.5469 2.7730
H 3.9989 0.5023 -0.6955