35
Molecule ID: Mol_102
F 7.2548 -1.2155 -1.3296
S 6.7128 -0.1301 -0.1660
O 7.1722 -0.5535 1.1895
O 7.3504 1.1960 -0.4614
Cl 0.6829 0.0000 0.0000
C 4.9553 -0.0207 -0.1809
C 4.1608 -0.8404 0.5920
C 2.7734 -0.7160 0.5461
C 2.1931 0.2230 -0.2686
C 3.0196 1.0180 -1.0209
C 4.3912 0.9323 -1.0090
N 0.7730 0.3663 -0.3299
C -0.1044 -0.3201 0.4206
C -1.3529 0.1385 0.0284
C -2.6512 -0.3434 0.5959
N -3.7022 0.3855 -0.0829
C -5.0262 0.0444 0.3430
C -6.2305 0.6866 -0.2390
C -5.8941 -0.6888 -0.6914
N -1.1484 1.0669 -0.9282
N 0.1311 1.1954 -1.1351
H -0.6829 0.0000 0.0000
H 4.6365 -1.5742 1.2276
H 2.1877 -1.3787 1.1682
H 2.5588 1.7574 -1.6623
H 4.9694 1.5972 -1.6328
H 0.0958 -1.0796 1.1812
H -2.7180 -1.4482 0.4288
H -2.6829 -0.1380 1.6960
H -3.6027 0.2227 -1.1036
H -5.1217 -0.3045 1.4119
H -6.1299 1.5007 -0.9980
H -7.1371 0.8076 0.3949
H -5.4430 -0.7961 -1.7201
H -6.3906 -1.5910 -0.3228