26
Molecule ID: Mol_106
F -4.9696 0.9273 1.4150
S -4.3188 0.6178 -0.0043
O -4.5881 1.7792 -0.8258
O -4.7786 -0.7100 -0.3567
O 4.2104 0.7404 1.1435
C 3.7648 -0.2730 0.3696
O 4.5039 -1.2129 0.1186
C 2.3477 -0.0582 -0.1510
C 1.8232 -1.3297 -0.8125
C 0.4561 -1.0446 -1.4158
C -0.3994 -0.2757 -0.4503
C -1.7815 -0.1809 -0.6595
C -2.5703 0.5378 0.2445
C -2.0079 1.1548 1.3627
C -0.6304 1.0684 1.5620
C 0.1700 0.3715 0.6535
O 1.5078 0.3376 0.9395
H 5.1130 0.4657 1.4069
H 2.4032 0.7619 -0.8798
H 2.5050 -1.6937 -1.5895
H 1.7298 -2.1253 -0.0609
H 0.5701 -0.4504 -2.3306
H -0.0262 -1.9912 -1.6853
H -2.2411 -0.6710 -1.5165
H -2.6202 1.7050 2.0728
H -0.1729 1.5491 2.4239