33
Molecule ID: Mol_423
F 4.3585 0.5937 2.2143
S 4.0540 0.8274 0.6690
O 3.1511 1.9583 0.6231
O 5.3541 0.8747 0.0320
C -3.3669 -0.9956 0.5218
C -2.6758 0.3518 0.2864
C -2.8102 1.2849 1.4947
C -3.3238 1.0293 -0.9308
O -1.2863 0.1731 -0.0901
C -0.4017 -0.3987 0.7616
O -0.6616 -0.8234 1.8787
N 0.8567 -0.4585 0.2165
C 1.2460 0.1044 -1.0663
C 2.6537 -0.4551 -1.2855
O 2.5818 -1.7408 -1.9209
C 3.2160 -0.6318 0.1198
C 1.9991 -0.9255 0.9798
H -2.9937 -1.4956 1.4206
H -4.4488 -0.8729 0.6414
H -3.1840 -1.6779 -0.3160
H -2.2365 2.2057 1.3404
H -3.8566 1.5527 1.6768
H -2.4262 0.8261 2.4108
H -3.2148 0.4071 -1.8269
H -4.3899 1.2212 -0.7705
H -2.8302 1.9822 -1.1549
H 0.5350 -0.1980 -1.8413
H 1.2406 1.1944 -0.9722
H 3.2550 0.1905 -1.9319
H 1.7782 -2.1975 -1.6082
H 3.9449 -1.4465 0.1879
H 1.8689 -2.0050 1.1177
H 2.0130 -0.4547 1.9681