25
Molecule ID: Mol_446
F 2.0162 1.7102 1.9151
S 2.5138 1.1302 0.4420
O 4.0227 1.0157 0.4948
O 2.2144 2.1437 -0.6145
Cl 0.6857 0.0000 0.0000
C 1.8872 -0.4575 0.0668
C 0.3913 -0.5428 0.0167
C -0.3096 -0.1817 1.2847
C -1.7441 -0.6669 1.0984
C -2.3373 0.0324 -0.1002
N -1.5734 -0.1642 -1.2845
C -0.2068 0.2824 -1.0917
H -0.6857 0.0000 0.0000
H 2.2493 -0.7217 -0.9523
H 2.3210 -1.2020 0.7423
H 0.1399 -1.6086 -0.1941
H -0.3801 0.9273 1.3557
H 0.1278 -0.6141 2.1984
H -2.3633 -0.4977 1.9864
H -1.6521 -1.7450 0.8314
H -2.4396 1.1150 0.0908
H -3.3508 -0.4196 -0.2608
H -1.6361 -1.1262 -1.6868
H -0.2666 1.3284 -0.7360
H 0.3762 0.2630 -2.0214