23
Molecule ID: Mol_131
F -3.1344 -1.9352 0.7019
S -2.4128 -0.6087 0.1875
O -2.4126 0.2738 1.3359
O -3.1173 -0.2684 -1.0337
C -0.7371 -1.1284 -0.2207
C -0.1154 -1.9571 0.8981
C 0.4378 -1.0530 1.9871
O 1.4354 -0.1645 1.4864
C 1.1114 0.4963 0.3333
C 1.9090 1.6003 0.0287
C 1.6829 2.3150 -1.1440
Br 2.7574 3.8153 -1.5526
C 0.6747 1.9271 -2.0220
C -0.1130 0.8135 -1.7236
C 0.0939 0.0880 -0.5378
H -0.8324 -1.7591 -1.1131
H -0.8304 -2.6727 1.3171
H 0.7180 -2.5353 0.4772
H 0.9175 -1.6704 2.7547
H -0.3382 -0.4736 2.4960
H 2.7007 1.8940 0.7128
H 0.4956 2.4810 -2.9403
H -0.8908 0.5223 -2.4291