17
Molecule ID: Mol_340
F -3.2615 -1.7429 -0.6637
S -2.6190 -0.8052 0.4502
O -2.3695 -1.6739 1.5824
O -3.4814 0.3541 0.5371
C 2.4030 0.6901 0.9846
C 1.2122 0.4047 0.1252
C 1.2984 0.4620 -1.2640
N 0.2720 0.1810 -2.1031
C -0.9011 -0.1802 -1.5365
C -1.0740 -0.2694 -0.1702
C -0.0069 0.0108 0.6807
H 3.0519 1.4380 0.5170
H 2.9783 -0.2268 1.1451
H 2.0958 1.0892 1.9570
H 2.2248 0.7421 -1.7605
H -1.7004 -0.3954 -2.2404
H -0.1226 -0.0784 1.7589