28
Molecule ID: Mol_248
F 3.6025 2.4237 0.9642
S 4.3543 1.0353 0.7697
O 4.9061 0.7079 2.0687
O 5.1811 1.1940 -0.4086
O -4.1644 -1.5080 -0.1700
N -4.5415 -0.3629 0.1064
O -5.7050 0.0208 0.2503
C -3.4859 0.6298 0.2943
C -3.4784 1.8891 -0.5249
C -2.5156 0.7753 -0.8616
C -1.0754 0.8308 -0.5144
O -0.5548 1.9087 -0.2771
N -0.4962 -0.4182 -0.4743
C 0.8460 -0.7272 -0.1733
C 1.2027 -2.0844 -0.1645
C 2.5112 -2.4832 0.1268
C 3.4810 -1.5273 0.4106
C 3.1260 -0.1774 0.3939
C 1.8193 0.2317 0.1096
H -3.1254 0.6695 1.3124
H -3.0812 2.7895 -0.0680
H -4.3028 2.0742 -1.2051
H -2.7266 0.2531 -1.7912
H -1.0999 -1.2088 -0.6744
H 0.4659 -2.8551 -0.3819
H 2.7694 -3.5399 0.1327
H 4.4995 -1.8329 0.6415
H 1.5880 1.2920 0.1081