32
Molecule ID: Mol_070
F 2.2870 3.6146 -0.3044
S 1.2565 2.4006 -0.4216
O -0.0117 2.9695 0.0002
O 1.4733 1.8776 -1.7590
C 1.7769 1.1892 0.7721
N 2.8960 1.5819 1.4561
C 3.3545 0.7294 2.3849
C 2.7508 -0.4807 2.6607
C 1.6060 -0.8450 1.9395
Br 0.8473 -2.5281 2.4145
C 1.0688 -0.0059 0.9438
N -0.0712 -0.2811 0.1712
C 0.0474 -1.4444 -0.7220
C -0.3899 -1.0957 -2.1422
C -1.6528 -0.2467 -2.2927
C -2.7309 -0.4674 -1.2335
C -2.4732 0.3274 0.0489
C -1.3377 -0.2035 0.9223
H 4.2438 1.0500 2.9211
H 3.1674 -1.1263 3.4276
H 1.0808 -1.8124 -0.7762
H -0.5576 -2.2822 -0.3536
H 0.4294 -0.5784 -2.6567
H -0.5303 -2.0374 -2.6885
H -1.3737 0.8144 -2.3145
H -2.0802 -0.4585 -3.2811
H -3.6835 -0.1150 -1.6493
H -2.8616 -1.5337 -1.0171
H -3.3914 0.3201 0.6496
H -2.2834 1.3768 -0.2060
H -1.6189 -1.1835 1.3251
H -1.2383 0.4747 1.7806