33
Molecule ID: Mol_399
F 6.0345 -1.6267 -1.0756
S 6.4485 -0.1856 -0.5407
O 6.4174 -0.2883 0.9037
O 7.6612 0.1512 -1.2566
C 5.1577 0.9154 -1.0698
C 3.8414 0.7218 -0.3290
C 3.2233 -0.6593 -0.5416
N 1.8813 -0.7282 -0.0030
C 0.7913 -0.2503 -0.7125
O 0.9458 0.2387 -1.8308
C -0.4914 -0.3584 -0.0452
C -0.8463 -0.9109 1.1676
N -2.1832 -0.8329 1.5006
C -2.8682 -0.2299 0.5442
S -1.9026 0.2672 -0.7986
C -4.3298 0.0005 0.5593
C -4.9599 1.0136 -0.1641
C -6.3452 1.1480 -0.0770
C -7.0660 0.2760 0.7278
C -6.3695 -0.6990 1.4183
N -5.0299 -0.8534 1.3521
H 5.5304 1.9310 -0.8994
H 5.0365 0.7759 -2.1485
H 3.9800 0.8944 0.7453
H 3.1441 1.4958 -0.6725
H 3.8041 -1.4323 -0.0298
H 3.1896 -0.9064 -1.6085
H 1.7666 -1.0604 0.9439
H -0.1796 -1.3947 1.8696
H -4.4001 1.7058 -0.7836
H -6.8552 1.9310 -0.6316
H -8.1436 0.3553 0.8180
H -6.8835 -1.4050 2.0645