21
Molecule ID: Mol_026
F 4.3819 -1.5487 -0.0825
S 3.9436 -0.1015 0.4152
O 4.3078 -0.0373 1.8149
O 4.4697 0.8190 -0.5718
C 2.1783 -0.0468 0.3222
C 1.4545 -1.2417 0.3176
C 0.0618 -1.1970 0.2181
C -0.5975 0.0395 0.1167
C 0.1438 1.2324 0.1134
C 1.5361 1.1896 0.2132
N -2.0138 0.0829 0.0156
N -2.6989 1.2559 -0.0855
C -3.9646 0.8394 -0.1546
C -4.0109 -0.5546 -0.0957
N -2.7754 -1.0470 0.0118
H 1.9558 -2.2038 0.3968
H -0.4994 -2.1307 0.2208
H -0.3508 2.1995 0.0316
H 2.1083 2.1155 0.2036
H -4.7689 1.5565 -0.2424
H -4.8614 -1.2213 -0.1250