22
Molecule ID: Mol_434
F -2.2231 2.2451 1.5032
S -1.1238 2.4675 0.3758
O -1.8436 2.8064 -0.8353
O -0.1628 3.3773 0.9708
C -2.9770 -1.4464 0.8066
O -2.2631 -0.2212 0.6792
C -0.9562 -0.2802 0.2908
C -0.2463 -1.4662 0.0772
C 1.0949 -1.4323 -0.3272
C 1.7490 -0.2114 -0.5236
C 1.0530 0.9799 -0.3107
C -0.2913 0.9342 0.0901
C 3.1689 -0.2336 -0.9509
O 3.8388 -1.2317 -1.1374
O 3.6751 0.9984 -1.1244
H -3.0079 -1.9864 -0.1455
H -2.5521 -2.0672 1.6020
H -4.0068 -1.2046 1.0866
H -0.7029 -2.4421 0.2157
H 1.6278 -2.3690 -0.4886
H 1.5464 1.9401 -0.4529
H 4.6029 0.8433 -1.4014