32
Molecule ID: Mol_035
F 6.0002 1.1411 -0.5232
S 5.4852 -0.3159 -0.1326
O 5.9239 -1.1855 -1.2080
O 5.9494 -0.4941 1.2309
C 3.7075 -0.2590 -0.1560
N 3.1259 -0.9085 0.8909
C 1.7739 -0.8852 0.9328
C 0.9517 -0.2462 -0.0026
C 1.6061 0.4100 -1.0534
C 3.0035 0.4088 -1.1447
Br 3.7825 1.3003 -2.6198
N -0.4500 -0.2732 0.1525
C -0.8785 0.6692 1.2043
C -2.2975 0.3931 1.7049
C -3.3715 0.8247 0.7113
C -3.6995 -0.2045 -0.3663
C -2.5384 -1.0407 -0.8976
C -1.2336 -0.2729 -1.0951
H 1.3348 -1.4255 1.7689
H 1.0265 0.9406 -1.8042
H -0.2182 0.5857 2.0777
H -0.7932 1.7028 0.8434
H -2.4395 0.9812 2.6207
H -2.4206 -0.6592 1.9859
H -4.2972 1.0397 1.2601
H -3.0813 1.7710 0.2380
H -4.4615 -0.8939 0.0196
H -4.1754 0.3215 -1.2038
H -2.8518 -1.4611 -1.8618
H -2.3719 -1.8993 -0.2344
H -0.6797 -0.8104 -1.8765
H -1.4118 0.7454 -1.4618