28
Molecule ID: Mol_456
F 1.5977 1.9695 1.1080
S 2.9177 1.0987 1.2577
O 4.0335 2.0093 1.1359
O 2.7127 0.2237 2.3895
C 2.9972 0.0482 -0.1454
C 4.0262 -0.2555 -1.0218
C 3.4759 -1.1448 -1.9541
N 2.1916 -1.3973 -1.7057
N 1.9240 -0.6800 -0.5927
C 0.5782 -0.7525 -0.0468
C -0.3828 0.1637 -0.8000
C -1.7515 0.1600 -0.1686
C -2.0837 1.1010 0.8154
C -3.3431 1.0782 1.4164
C -4.2783 0.1149 1.0429
C -3.9556 -0.8273 0.0683
C -2.6971 -0.8072 -0.5343
H 5.0358 0.1308 -0.9809
H 3.9518 -1.6164 -2.8051
H 0.6176 -0.5052 1.0175
H 0.2588 -1.8002 -0.1133
H -0.4634 -0.1435 -1.8509
H 0.0044 1.1905 -0.8260
H -1.3674 1.8604 1.1210
H -3.5957 1.8126 2.1771
H -5.2589 0.0984 1.5113
H -4.6849 -1.5790 -0.2228
H -2.4607 -1.5512 -1.2925