24
Molecule ID: Mol_157
F 3.4493 -1.0006 -0.9750
S 3.0904 -0.3888 0.4528
O 3.7213 0.9163 0.4615
O 3.4754 -1.4159 1.4001
C -2.6873 -1.0781 0.0466
N -1.6261 -0.0964 -0.0959
C -0.3943 -0.4982 -0.8170
C 0.5342 -1.4461 -0.0192
C 1.3196 -0.2035 0.4494
C 0.7528 0.5442 -0.7844
C 0.3417 1.9448 -0.5514
C -0.8913 2.2320 -0.1172
C -1.9432 1.2252 0.1754
O -3.0191 1.6008 0.6300
H -3.2252 -0.9146 0.9852
H -2.2726 -2.0893 0.0418
H -3.3846 -0.9623 -0.7885
H -0.6383 -0.8572 -1.8240
H 1.0977 -2.1334 -0.6615
H 0.0721 -2.0288 0.7828
H 0.9693 0.1788 1.4167
H 1.3917 0.4708 -1.6753
H 1.0589 2.7403 -0.7354
H -1.1925 3.2598 0.0615