31
Molecule ID: Mol_205
F 6.4519 1.2056 -0.3575
S 6.0318 -0.1528 0.3575
O 6.4168 -0.0045 1.7447
O 6.5508 -1.2084 -0.4869
C -3.3937 0.6509 -1.5839
C -3.2706 0.0371 -0.1849
C -4.2996 -1.0965 -0.0549
C -3.5355 1.0665 0.9192
O -1.9845 -0.6118 -0.0043
C -0.8285 0.0971 -0.0562
O -0.7554 1.2993 -0.2522
N 0.2015 -0.7656 0.1457
C 1.5661 -0.5077 0.1818
C 2.1257 0.7541 0.0072
C 3.5134 0.8953 0.0644
C 4.2859 -0.2340 0.3021
C 3.6663 -1.4558 0.4566
N 2.3209 -1.6090 0.4036
H -3.1148 -0.0774 -2.3537
H -4.4159 0.9917 -1.7807
H -2.7318 1.5124 -1.7128
H -4.2177 -1.5869 0.9222
H -5.3251 -0.7313 -0.1736
H -4.1198 -1.8740 -0.8066
H -4.5667 1.4340 0.8821
H -2.8761 1.9356 0.8356
H -3.3563 0.6304 1.9084
H -0.0476 -1.7322 0.2909
H 1.5174 1.6336 -0.1724
H 3.9634 1.8752 -0.0706
H 4.2278 -2.3709 0.6292