22
Molecule ID: Mol_018
F 2.5151 -2.0993 1.3441
S 2.3388 -0.5509 1.0169
O 2.5801 0.1311 2.2719
O 3.1534 -0.3126 -0.1529
C 0.6168 -0.3517 0.6087
C 0.1922 -1.2272 -0.5758
C -1.1273 -0.7749 -1.2084
C -2.0023 -0.0015 -0.2300
C -1.3065 1.2463 0.3325
C 0.2283 1.1191 0.4479
C 0.8727 1.7456 -0.7244
N 1.3443 2.2426 -1.6594
H 0.1016 -0.7293 1.5043
H 0.9631 -1.2550 -1.3551
H 0.0923 -2.2623 -0.2244
H -1.6688 -1.6483 -1.5897
H -0.9167 -0.1418 -2.0792
H -2.9413 0.2913 -0.7137
H -2.2781 -0.6642 0.6004
H -1.7245 1.4364 1.3298
H -1.5784 2.1192 -0.2753
H 0.5453 1.6874 1.3320