34
Molecule ID: Mol_410
F 6.3166 -1.0704 0.1770
S 6.2382 0.3763 0.8346
O 6.2021 0.1637 2.2657
O 7.2748 1.1525 0.1855
C 4.6750 1.0608 0.3660
C 4.5351 2.4494 0.2685
C 3.3135 2.9911 -0.1331
C 2.2422 2.1491 -0.4380
C 2.3967 0.7615 -0.3332
C 3.6175 0.2029 0.0564
S 1.0372 -0.2960 -0.7575
O 0.2723 0.3443 -1.8090
O 1.5315 -1.6482 -0.8803
N 0.0994 -0.2213 0.6709
N -1.4162 -0.0550 0.4015
C -2.1876 -1.1541 0.7438
O -1.7365 -2.0809 1.4120
C -3.5812 -1.1830 0.2238
C -4.2296 -2.4228 0.1355
C -5.5381 -2.5016 -0.3447
C -6.2075 -1.3422 -0.7332
C -5.5675 -0.1077 -0.6309
Br -6.4862 1.4656 -1.1382
C -4.2597 -0.0168 -0.1514
H 5.3703 3.1095 0.4981
H 3.1974 4.0701 -0.2131
H 1.2945 2.5788 -0.7571
H 3.7394 -0.8763 0.1207
H 0.2556 -1.0892 1.2115
H -1.6254 0.4405 -0.4675
H -3.7157 -3.3334 0.4401
H -6.0344 -3.4670 -0.4118
H -7.2271 -1.4108 -1.1049
H -3.7966 0.9603 -0.0519