31
Molecule ID: Mol_367
F 7.1002 0.5227 -0.2470
S 5.8567 0.3199 0.7197
O 5.8871 -1.0529 1.1732
O 5.8129 1.4628 1.6050
C -4.2608 1.0290 -0.5875
C -4.2648 -0.2840 0.1087
N -5.3952 -1.0040 0.1165
N -5.0985 -2.0786 0.8586
C -3.8172 -2.0821 1.3112
C -3.2173 -0.9334 0.8275
C -1.8353 -0.5648 1.0878
O -1.1709 -1.0728 1.9912
N -1.2876 0.3682 0.2264
N 0.1115 0.5568 0.2905
C 0.7967 0.6455 -0.9049
O 0.2075 0.7675 -1.9787
C 2.2383 0.5712 -0.8128
C 3.0989 0.4710 0.2705
C 4.4257 0.4397 -0.2337
C 4.3550 0.5215 -1.6079
N 3.0297 0.6030 -1.9456
H -5.2798 1.3892 -0.7658
H -3.7462 1.7865 0.0117
H -3.7599 0.9450 -1.5569
H -5.8244 -2.7704 1.0172
H -3.4344 -2.8848 1.9266
H -1.6917 0.5035 -0.6982
H 0.5614 0.1889 1.1269
H 2.8219 0.4298 1.3172
H 5.1242 0.5294 -2.3697
H 2.6562 0.6768 -2.8861