37
Molecule ID: Mol_046
F 6.0436 -1.2695 1.1074
S 5.1768 -1.6769 -0.1663
O 5.8565 -1.0581 -1.2873
O 5.0544 -3.1195 -0.0801
C -5.5789 2.3153 0.2737
O -4.3818 2.3091 -0.4934
C -3.4404 1.3741 -0.1644
C -3.5674 0.3889 0.8103
C -2.5202 -0.5115 1.0461
C -1.3346 -0.4392 0.3086
O -0.2617 -1.2767 0.4699
C -0.3596 -2.2713 1.4825
C -1.2002 0.5494 -0.6811
C 0.0604 0.6731 -1.5076
C 1.2423 1.1960 -0.7087
O 1.1906 2.2502 -0.0732
N 2.3938 0.4561 -0.7592
C 2.6839 -0.9185 -1.1249
C 3.5988 -0.9385 0.1018
C 3.5787 0.5891 0.0759
C -2.2585 1.4484 -0.9033
H -6.2070 3.1327 -0.0933
H -6.1361 1.3821 0.1413
H -5.3700 2.5050 1.3318
H -4.4671 0.2907 1.4084
H -2.6688 -1.2590 1.8183
H -1.1706 -2.9747 1.2678
H -0.4761 -1.8178 2.4723
H 0.5778 -2.8360 1.4848
H 0.2744 -0.2908 -1.9790
H -0.0913 1.3736 -2.3387
H 1.8466 -1.6160 -1.0702
H 3.1629 -0.9895 -2.1060
H 3.1138 -1.3552 0.9940
H 3.4031 1.0619 1.0457
H 4.3950 1.0956 -0.4467
H -2.1629 2.2275 -1.6575