15
Molecule ID: Mol_159
F -3.6098 -0.6270 0.3263
S -2.6121 0.6005 0.2062
O -2.9648 1.3278 -0.9922
O -2.5373 1.2081 1.5173
O 3.0043 0.8100 0.7916
C 2.6092 -0.2317 0.0252
O 3.4366 -0.9953 -0.4478
C 1.1772 -0.2662 -0.1114
C 0.1724 0.5430 0.3864
C -1.0476 0.0016 -0.0912
C -0.7372 -1.0933 -0.8572
Cl -1.7974 -2.1461 -1.7075
O 0.6176 -1.2637 -0.8662
H 3.9803 0.7199 0.8027
H 0.3086 1.4124 1.0178