42
Molecule ID: Mol_074
F -4.0755 4.2889 -0.0761
S -4.5305 3.1132 -1.0464
O -5.9486 2.9401 -0.8072
O -3.9950 3.4403 -2.3512
C -2.3965 -2.9896 0.9774
O -1.7377 -1.7300 0.9501
C -2.4293 -0.6615 0.4471
C -3.6775 -0.7472 -0.1818
C -4.3168 0.4057 -0.6531
C -3.7041 1.6509 -0.4962
C -2.4649 1.7648 0.1277
C -1.8264 0.6023 0.5761
C -0.5257 0.7753 1.2515
O -0.5217 1.3019 2.3610
N 0.6167 0.4135 0.5673
C 0.7081 -0.1130 -0.7883
C 2.1730 -0.5336 -0.9331
C 2.6530 -0.5125 -2.3746
C 2.8943 0.4749 -0.0186
C 4.3305 0.1330 0.3619
C 4.4868 -1.1792 1.0792
O 4.5478 -2.2815 0.5622
O 4.5359 -1.0378 2.4159
C 1.9297 0.5916 1.1630
H -3.3265 -2.9392 1.5533
H -1.7334 -3.7026 1.4769
H -2.5778 -3.3584 -0.0373
H -4.1848 -1.6978 -0.3173
H -5.2922 0.3239 -1.1306
H -1.9892 2.7326 0.2708
H 0.0268 -0.9538 -0.9377
H 0.4347 0.6929 -1.4788
H 2.2789 -1.5500 -0.5343
H 3.6977 -0.8315 -2.4431
H 2.0532 -1.1917 -2.9893
H 2.5764 0.4902 -2.8082
H 2.9141 1.4480 -0.5317
H 4.9687 0.0967 -0.5287
H 4.7492 0.9269 0.9929
H 4.6210 -1.9533 2.7567
H 2.0564 -0.2033 1.9044
H 2.0012 1.5601 1.6681