30
Molecule ID: Mol_038
F 6.2317 0.2519 -0.1939
S 4.9941 0.4849 -1.1677
O 5.0520 1.8838 -1.5488
O 5.0739 -0.5764 -2.1551
C 3.5140 0.2345 -0.2231
C 2.2842 0.2232 -0.8641
C 1.1391 -0.0031 -0.0994
N -0.1011 0.0566 -0.7361
C -1.3449 -0.3536 -0.0725
C -1.9639 0.8274 0.6728
C -3.2531 0.3972 1.3672
O -3.8559 -0.7485 0.7615
C -3.7885 -0.7068 -0.6590
C -2.3445 -0.8687 -1.1218
C 1.3092 -0.1484 1.2804
C 2.5887 -0.1268 1.8272
N 3.7106 0.0518 1.1061
H 2.2234 0.3915 -1.9344
H -0.0451 -0.2270 -1.7127
H -1.1512 -1.1784 0.6260
H -2.1917 1.6288 -0.0436
H -1.2802 1.2741 1.4026
H -3.9776 1.2190 1.3817
H -3.0450 0.1309 2.4088
H -4.4055 -1.5171 -1.0606
H -4.2181 0.2365 -1.0177
H -2.2263 -0.3702 -2.0919
H -2.1333 -1.9303 -1.3044
H 0.4688 -0.2842 1.9507
H 2.7361 -0.2525 2.8970