33
Molecule ID: Mol_219
F 7.0708 -0.7965 0.2870
S 6.4541 0.3373 1.2118
O 7.0951 1.5816 0.8462
O 6.4168 -0.1855 2.5600
C 4.7999 0.5334 0.7696
C 3.9722 1.5849 1.1032
N 2.7484 1.3470 0.5342
C 2.7573 0.1363 -0.1311
C 4.0457 -0.3688 -0.0169
C 1.6432 -0.4475 -0.8629
O 1.8337 -1.2041 -1.8066
N 0.4042 -0.0943 -0.3561
C -0.8632 -0.4179 -0.8900
C -1.0511 -1.0098 -2.1390
C -2.3387 -1.2796 -2.6059
C -3.4500 -0.9578 -1.8276
C -3.2911 -0.3629 -0.5695
C -1.9887 -0.0937 -0.1141
C -4.4629 -0.0318 0.2423
C -4.5413 0.3376 1.6085
N -5.8079 0.5646 1.9665
N -6.4472 0.3169 0.8145
N -5.7152 -0.0417 -0.2504
H 4.1615 2.4851 1.6749
H 1.9678 1.9911 0.5579
H 4.3859 -1.3001 -0.4568
H 0.3980 0.3393 0.5550
H -0.2170 -1.2675 -2.7848
H -2.4746 -1.7403 -3.5815
H -4.4447 -1.1773 -2.2122
H -1.8462 0.3775 0.8540
H -3.7554 0.4458 2.3418
H -7.4594 0.3986 0.7496