30
Molecule ID: Mol_350
F -4.2957 1.7053 -0.2662
S -4.9371 0.2910 -0.6080
O -4.5511 0.0013 -1.9741
O -6.3300 0.3934 -0.2230
O 4.1742 2.9840 -1.7087
N 4.7286 2.2080 -0.9204
O 5.9297 2.2394 -0.6220
C 3.9034 1.1654 -0.2976
C 4.5124 0.1599 0.4572
C 3.7221 -0.8292 1.0529
Cl 4.5514 -2.0340 1.9801
C 2.3227 -0.8297 0.8980
Cl 1.3687 -2.0359 1.7037
C 1.7236 0.1769 0.1209
C 2.5160 1.1812 -0.4663
C 0.2627 0.2954 -0.1196
O -0.2545 1.4064 -0.1091
N -0.4285 -0.8616 -0.3961
C -1.8541 -0.8516 -0.6575
C -2.6556 -0.6625 0.6305
C -4.1503 -0.8894 0.4613
H 5.5933 0.1396 0.5919
H 2.0348 1.9670 -1.0514
H 0.0386 -1.7581 -0.3256
H -2.0994 -1.8065 -1.1333
H -2.0567 -0.0442 -1.3675
H -2.2864 -1.3668 1.3870
H -2.4781 0.3414 1.0341
H -4.6415 -0.8002 1.4360
H -4.3634 -1.8860 0.0622