20
Molecule ID: Mol_459
F 1.8687 -2.6038 0.9380
S 2.4411 -1.4901 -0.0397
O 3.6115 -0.9669 0.6421
O 2.5481 -2.1060 -1.3476
C 1.2953 -0.1644 -0.1729
C 1.7945 1.1049 -0.5058
C 0.9139 2.1706 -0.5991
Br 1.5547 3.8888 -1.0481
C -0.4424 1.9750 -0.3607
C -0.9258 0.6976 -0.0234
C -2.2907 0.4918 0.2184
C -2.7556 -0.7738 0.5482
C -1.8347 -1.7964 0.6265
N -0.5118 -1.6323 0.4018
C -0.0492 -0.4073 0.0794
H 2.8584 1.2469 -0.6868
H -1.1293 2.8158 -0.4362
H -2.9995 1.3142 0.1496
H -3.8076 -0.9558 0.7374
H -2.1396 -2.8087 0.8791